version 2
run InterMobility-0-20190530-11:43:57-2351
attr configname InterMobility
attr datetime 20190530-11:43:57
attr experiment InterMobility
attr inifile DHT-based_mobile_scenarios.ini
attr iterationvars ""
attr iterationvars2 $repetition=0
attr measurement ""
attr network p2psipmanet.simulations.hierarchical
attr processid 2351
attr repetition 0
attr replication #0
attr resultdir results
attr runnumber 0
attr seedset 772087

scalar hierarchical.gw[0].networkLayer.arp 	failedARPResolution:count 	0
attr title  "ARP failed resolutions, count"
scalar hierarchical.gw[0].networkLayer.arp 	completedARPResolution:count 	150
attr title  "ARP completed resolutions, count"
scalar hierarchical.gw[0].networkLayer.arp 	initiatedARPResolution:count 	59
attr title  "ARP initiated resolutions, count"
scalar hierarchical.gw[0].networkLayer.arp 	sentReply:count 	12
attr title  "ARP replies sent, count"
scalar hierarchical.gw[0].networkLayer.arp 	sentReq:count 	61
attr title  "ARP request sent, count"
scalar hierarchical.gw[0].lo0.lo 	droppedPkBitError:count 	0
attr interpolationmode  none
attr source  dropPkBitError
attr title  "packets dropped/bit error, count"
scalar hierarchical.gw[0].lo0.lo 	droppedPkBitError:sum(packetBytes) 	0
attr interpolationmode  none
attr source  dropPkBitError
attr title  "packets dropped/bit error, sum(packetBytes)"
scalar hierarchical.gw[0].lo0.lo 	rcvdPkFromHL:count 	44
attr interpolationmode  none
attr source  packetReceivedFromUpper
attr title  "packets received from higher layer, count"
scalar hierarchical.gw[0].lo0.lo 	rcvdPkFromHL:sum(packetBytes) 	4165
attr interpolationmode  none
attr source  packetReceivedFromUpper
attr title  "packets received from higher layer, sum(packetBytes)"
scalar hierarchical.gw[0].lo0.lo 	passedUpPk:count 	44
attr interpolationmode  none
attr source  packetSentToUpper
attr title  "packets passed to higher layer, count"
scalar hierarchical.gw[0].lo0.lo 	passedUpPk:sum(packetBytes) 	4165
attr interpolationmode  none
attr source  packetSentToUpper
attr title  "packets passed to higher layer, sum(packetBytes)"
scalar hierarchical.gw[0].wlan[0].mgmt 	dataQueueLen:max 	1
attr interpolationmode  sample-hold
attr title  "data queue length, max"
scalar hierarchical.gw[0].wlan[0].mgmt 	dataQueueLen:timeavg 	1.2006588888889e-06
attr interpolationmode  sample-hold
attr title  "data queue length, timeavg"
scalar hierarchical.gw[0].wlan[0].mgmt 	dropPkByQueue:count 	0
attr interpolationmode  none
attr source  dropPkByQueue
attr title  "packets dropped by queue, count"
scalar hierarchical.gw[0].wlan[0].mgmt 	dropPkByQueue:sum(packetBytes) 	0
attr interpolationmode  none
attr source  dropPkByQueue
attr title  "packets dropped by queue, sum(packetBytes)"
scalar hierarchical.gw[0].wlan[0].mac 	"number of received packets" 	32221
scalar hierarchical.gw[0].wlan[0].mac 	"number of collisions" 	109
scalar hierarchical.gw[0].wlan[0].mac 	"number of internal collisions" 	0
scalar hierarchical.gw[0].wlan[0].mac 	"number of retry for AC 0" 	12
scalar hierarchical.gw[0].wlan[0].mac 	"sent and received bits" 	49927392
scalar hierarchical.gw[0].wlan[0].mac 	"sent packet within AC 0" 	32114
scalar hierarchical.gw[0].wlan[0].mac 	"sent in TXOP " 	0
scalar hierarchical.gw[0].wlan[0].mac 	"sentWithoutRetry AC 0" 	32102
scalar hierarchical.gw[0].wlan[0].mac 	"numGivenUp AC 0" 	0
scalar hierarchical.gw[0].wlan[0].mac 	"numDropped AC 0" 	0
scalar hierarchical.gw[0].wlan[0].mac 	rcvdPkFromHL:count 	33314
attr interpolationmode  none
attr source  packetReceivedFromUpper
attr title  "packets received from higher layer, count"
scalar hierarchical.gw[0].wlan[0].mac 	rcvdPkFromHL:sum(packetBytes) 	6240924
attr interpolationmode  none
attr source  packetReceivedFromUpper
attr title  "packets received from higher layer, sum(packetBytes)"
scalar hierarchical.gw[0].wlan[0].mac 	passedUpPk:count 	38719
attr interpolationmode  none
attr source  packetSentToUpper
attr title  "packets passed to higher layer, count"
scalar hierarchical.gw[0].wlan[0].mac 	passedUpPk:sum(packetBytes) 	6931826
attr interpolationmode  none
attr source  packetSentToUpper
attr title  "packets passed to higher layer, sum(packetBytes)"
scalar hierarchical.gw[0].wlan[0].mac 	rcvdPkFromLL:count 	98592
attr interpolationmode  none
attr source  packetReceivedFromLower
attr title  "packets received from lower layer, count"
scalar hierarchical.gw[0].wlan[0].mac 	rcvdPkFromLL:sum(packetBytes) 	10219772
attr interpolationmode  none
attr source  packetReceivedFromLower
attr title  "packets received from lower layer, sum(packetBytes)"
scalar hierarchical.gw[0].wlan[0].mac 	sentDownPk:count 	65547
attr interpolationmode  none
attr source  packetSentToLower
attr title  "packets sent to lower layer, count"
scalar hierarchical.gw[0].wlan[0].mac 	sentDownPk:sum(packetBytes) 	6694298
attr interpolationmode  none
attr source  packetSentToLower
attr title  "packets sent to lower layer, sum(packetBytes)"
scalar hierarchical.gw[0].wlan[0].radio 	lossRate:min 	0
attr interpolationmode  backward-sample-hold
attr title  "packet loss rate, min"
scalar hierarchical.gw[0].wlan[0].radio 	lossRate:max 	0.1
attr interpolationmode  backward-sample-hold
attr title  "packet loss rate, max"
scalar hierarchical.gw[0].wlan[0].radio 	lossRate:timeavg 	0.00098956422492785
attr interpolationmode  backward-sample-hold
attr title  "packet loss rate, timeavg"
statistic hierarchical.gw[0].wlan[0].radio 	channelNo:histogram
field count 1
field mean 0
field stddev -nan
field sum 0
field sqrsum 0
field min 0
field max 0
attr interpolationmode  sample-hold
attr title  "channel no, histogram"
bin	-INF	0
bin	-0.5	0
bin	-0.46666666666667	0
bin	-0.43333333333333	0
bin	-0.4	0
bin	-0.36666666666667	0
bin	-0.33333333333333	0
bin	-0.3	0
bin	-0.26666666666667	0
bin	-0.23333333333333	0
bin	-0.2	0
bin	-0.16666666666667	0
bin	-0.13333333333333	0
bin	-0.1	0
bin	-0.066666666666667	0
bin	-0.033333333333333	0
bin	0	1
bin	0.033333333333333	0
bin	0.066666666666667	0
bin	0.1	0
bin	0.13333333333333	0
bin	0.16666666666667	0
bin	0.2	0
bin	0.23333333333333	0
bin	0.26666666666667	0
bin	0.3	0
bin	0.33333333333333	0
bin	0.36666666666667	0
bin	0.4	0
bin	0.43333333333333	0
bin	0.46666666666667	0
bin	0.5	0
scalar hierarchical.gw[0].wlan[0].radio 	bitrate:min 	11000000
attr interpolationmode  sample-hold
attr title  "tx bitrate, min"
attr unit  bps
scalar hierarchical.gw[0].wlan[0].radio 	bitrate:max 	11000000
attr interpolationmode  sample-hold
attr title  "tx bitrate, max"
attr unit  bps
scalar hierarchical.gw[0].wlan[0].radio 	bitrate:timeavg 	11000000
attr interpolationmode  sample-hold
attr title  "tx bitrate, timeavg"
attr unit  bps
scalar hierarchical.gw[0].wlan[0].radio 	radioState:count 	328283
attr interpolationmode  sample-hold
attr title  "radio state (enum), count"
scalar hierarchical.gw[0].wlan[1].mgmt 	dataQueueLen:max 	7
attr interpolationmode  sample-hold
attr title  "data queue length, max"
scalar hierarchical.gw[0].wlan[1].mgmt 	dataQueueLen:timeavg 	0.00079333607222222
attr interpolationmode  sample-hold
attr title  "data queue length, timeavg"
scalar hierarchical.gw[0].wlan[1].mgmt 	dropPkByQueue:count 	0
attr interpolationmode  none
attr source  dropPkByQueue
attr title  "packets dropped by queue, count"
scalar hierarchical.gw[0].wlan[1].mgmt 	dropPkByQueue:sum(packetBytes) 	0
attr interpolationmode  none
attr source  dropPkByQueue
attr title  "packets dropped by queue, sum(packetBytes)"
scalar hierarchical.gw[0].wlan[1].mac 	"number of received packets" 	33200
scalar hierarchical.gw[0].wlan[1].mac 	"number of collisions" 	603
scalar hierarchical.gw[0].wlan[1].mac 	"number of internal collisions" 	0
scalar hierarchical.gw[0].wlan[1].mac 	"number of retry for AC 0" 	453
scalar hierarchical.gw[0].wlan[1].mac 	"sent and received bits" 	55948288
scalar hierarchical.gw[0].wlan[1].mac 	"sent packet within AC 0" 	33252
scalar hierarchical.gw[0].wlan[1].mac 	"sent in TXOP " 	0
scalar hierarchical.gw[0].wlan[1].mac 	"sentWithoutRetry AC 0" 	32979
scalar hierarchical.gw[0].wlan[1].mac 	"numGivenUp AC 0" 	1
scalar hierarchical.gw[0].wlan[1].mac 	"numDropped AC 0" 	0
scalar hierarchical.gw[0].wlan[1].mac 	rcvdPkFromHL:count 	34132
attr interpolationmode  none
attr source  packetReceivedFromUpper
attr title  "packets received from higher layer, count"
scalar hierarchical.gw[0].wlan[1].mac 	rcvdPkFromHL:sum(packetBytes) 	6993818
attr interpolationmode  none
attr source  packetReceivedFromUpper
attr title  "packets received from higher layer, sum(packetBytes)"
scalar hierarchical.gw[0].wlan[1].mac 	passedUpPk:count 	37892
attr interpolationmode  none
attr source  packetSentToUpper
attr title  "packets passed to higher layer, count"
scalar hierarchical.gw[0].wlan[1].mac 	passedUpPk:sum(packetBytes) 	7414868
attr interpolationmode  none
attr source  packetSentToUpper
attr title  "packets passed to higher layer, sum(packetBytes)"
scalar hierarchical.gw[0].wlan[1].mac 	rcvdPkFromLL:count 	226802
attr interpolationmode  none
attr source  packetReceivedFromLower
attr title  "packets received from lower layer, count"
scalar hierarchical.gw[0].wlan[1].mac 	rcvdPkFromLL:sum(packetBytes) 	24983575
attr interpolationmode  none
attr source  packetReceivedFromLower
attr title  "packets received from lower layer, sum(packetBytes)"
scalar hierarchical.gw[0].wlan[1].mac 	sentDownPk:count 	67785
attr interpolationmode  none
attr source  packetSentToLower
attr title  "packets sent to lower layer, count"
scalar hierarchical.gw[0].wlan[1].mac 	sentDownPk:sum(packetBytes) 	7536108
attr interpolationmode  none
attr source  packetSentToLower
attr title  "packets sent to lower layer, sum(packetBytes)"
scalar hierarchical.gw[0].wlan[1].radio 	lossRate:min 	0
attr interpolationmode  backward-sample-hold
attr title  "packet loss rate, min"
scalar hierarchical.gw[0].wlan[1].radio 	lossRate:max 	0.26
attr interpolationmode  backward-sample-hold
attr title  "packet loss rate, max"
scalar hierarchical.gw[0].wlan[1].radio 	lossRate:timeavg 	0.0026369078061137
attr interpolationmode  backward-sample-hold
attr title  "packet loss rate, timeavg"
statistic hierarchical.gw[0].wlan[1].radio 	channelNo:histogram
field count 1
field mean 8
field stddev -nan
field sum 8
field sqrsum 64
field min 8
field max 8
attr interpolationmode  sample-hold
attr title  "channel no, histogram"
bin	-INF	0
bin	7	0
bin	8	1
bin	9	0
scalar hierarchical.gw[0].wlan[1].radio 	bitrate:min 	11000000
attr interpolationmode  sample-hold
attr title  "tx bitrate, min"
attr unit  bps
scalar hierarchical.gw[0].wlan[1].radio 	bitrate:max 	11000000
attr interpolationmode  sample-hold
attr title  "tx bitrate, max"
attr unit  bps
scalar hierarchical.gw[0].wlan[1].radio 	bitrate:timeavg 	11000000
attr interpolationmode  sample-hold
attr title  "tx bitrate, timeavg"
attr unit  bps
scalar hierarchical.gw[0].wlan[1].radio 	radioState:count 	589311
attr interpolationmode  sample-hold
attr title  "radio state (enum), count"
scalar hierarchical.gw[0].manetrouting 	OLSR_HNA_Messages_(Forwarded) 	0
scalar hierarchical.gw[0].manetrouting 	OLSR_TC_Messages_(Forwarded) 	2
scalar hierarchical.gw[0].manetrouting 	OLSR_Total_HELLO 	511
scalar hierarchical.gw[0].manetrouting 	OLSR_Total_HNA_(originated) 	190
scalar hierarchical.gw[0].manetrouting 	OLSR_Total_TC 	130
scalar hierarchical.gw[0].manetrouting 	OLSR_Total_Messages_Sent 	833
scalar hierarchical.gw[0].backbonemanetrouting 	OLSR_HNA_Messages_(Forwarded) 	0
scalar hierarchical.gw[0].backbonemanetrouting 	OLSR_TC_Messages_(Forwarded) 	558
scalar hierarchical.gw[0].backbonemanetrouting 	OLSR_Total_HELLO 	514
scalar hierarchical.gw[0].backbonemanetrouting 	OLSR_Total_HNA_(originated) 	0
scalar hierarchical.gw[0].backbonemanetrouting 	OLSR_Total_TC 	108
scalar hierarchical.gw[0].backbonemanetrouting 	OLSR_Total_Messages_Sent 	1180
scalar hierarchical.gw[0].udp 	droppedPkBadChecksum:count 	0
attr interpolationmode  none
attr title  "packets dropped (checksum error), count"
scalar hierarchical.gw[0].udp 	droppedPkWrongPort:count 	0
attr interpolationmode  none
attr title  "packets dropped (wrong port), count"
scalar hierarchical.gw[0].udp 	passedUpPk:count 	1009
attr interpolationmode  none
attr title  "packets passed up, count"
scalar hierarchical.gw[0].udp 	rcvdPk:count 	1009
attr interpolationmode  none
attr source  rcvdPk
attr title  "packets received, count"
scalar hierarchical.gw[0].udp 	rcvdPk:sum(packetBytes) 	68730
attr interpolationmode  none
attr source  rcvdPk
attr title  "packets received, sum(packetBytes)"
scalar hierarchical.gw[0].udp 	sentPk:count 	1042
attr interpolationmode  none
attr source  sentPk
attr title  "packets sent, count"
scalar hierarchical.gw[0].udp 	sentPk:sum(packetBytes) 	71913
attr interpolationmode  none
attr source  sentPk
attr title  "packets sent, sum(packetBytes)"
scalar hierarchical.gw[0].pingApp[0] 	numOutOfOrderArrivals:last 	-nan
attr interpolationmode  none
attr title  "ping out-of-order arrivals, last"
scalar hierarchical.gw[0].pingApp[0] 	pingRxSeq:count 	0
attr interpolationmode  none
attr title  "ping rx seq, count"
scalar hierarchical.gw[0].pingApp[0] 	pingTxSeq:count 	0
attr interpolationmode  none
attr title  "ping tx seq, count"
scalar hierarchical.gw[0].pingApp[0] 	numLost:last 	-nan
attr interpolationmode  none
attr title  "pings lost, last"
statistic hierarchical.gw[0].pingApp[0] 	rtt:histogram
field count 0
field mean -nan
field stddev -nan
field sum 0
field sqrsum 0
field min -nan
field max -nan
attr interpolationmode  none
attr title  "ping round-trip time, histogram"
attr unit  s
bin	-INF	0
bin	-0.5	0
bin	-0.46666666666667	0
bin	-0.43333333333333	0
bin	-0.4	0
bin	-0.36666666666667	0
bin	-0.33333333333333	0
bin	-0.3	0
bin	-0.26666666666667	0
bin	-0.23333333333333	0
bin	-0.2	0
bin	-0.16666666666667	0
bin	-0.13333333333333	0
bin	-0.1	0
bin	-0.066666666666667	0
bin	-0.033333333333333	0
bin	0	0
bin	0.033333333333333	0
bin	0.066666666666667	0
bin	0.1	0
bin	0.13333333333333	0
bin	0.16666666666667	0
bin	0.2	0
bin	0.23333333333333	0
bin	0.26666666666667	0
bin	0.3	0
bin	0.33333333333333	0
bin	0.36666666666667	0
bin	0.4	0
bin	0.43333333333333	0
bin	0.46666666666667	0
bin	0.5	0
scalar hierarchical.gw[0].pingTestApp[0] 	numOutOfOrderArrivals:last 	-nan
attr interpolationmode  none
attr title  "ping out-of-order arrivals, last"
scalar hierarchical.gw[0].pingTestApp[0] 	pingRxSeq:count 	0
attr interpolationmode  none
attr title  "ping rx seq, count"
scalar hierarchical.gw[0].pingTestApp[0] 	pingTxSeq:count 	0
attr interpolationmode  none
attr title  "ping tx seq, count"
scalar hierarchical.gw[0].pingTestApp[0] 	numLost:last 	-nan
attr interpolationmode  none
attr title  "pings lost, last"
statistic hierarchical.gw[0].pingTestApp[0] 	rtt:histogram
field count 0
field mean -nan
field stddev -nan
field sum 0
field sqrsum 0
field min -nan
field max -nan
attr interpolationmode  none
attr title  "ping round-trip time, histogram"
attr unit  s
bin	-INF	0
bin	-0.5	0
bin	-0.46666666666667	0
bin	-0.43333333333333	0
bin	-0.4	0
bin	-0.36666666666667	0
bin	-0.33333333333333	0
bin	-0.3	0
bin	-0.26666666666667	0
bin	-0.23333333333333	0
bin	-0.2	0
bin	-0.16666666666667	0
bin	-0.13333333333333	0
bin	-0.1	0
bin	-0.066666666666667	0
bin	-0.033333333333333	0
bin	0	0
bin	0.033333333333333	0
bin	0.066666666666667	0
bin	0.1	0
bin	0.13333333333333	0
bin	0.16666666666667	0
bin	0.2	0
bin	0.23333333333333	0
bin	0.26666666666667	0
bin	0.3	0
bin	0.33333333333333	0
bin	0.36666666666667	0
bin	0.4	0
bin	0.43333333333333	0
bin	0.46666666666667	0
bin	0.5	0
scalar hierarchical.gw[1].networkLayer.arp 	failedARPResolution:count 	0
attr title  "ARP failed resolutions, count"
scalar hierarchical.gw[1].networkLayer.arp 	completedARPResolution:count 	179
attr title  "ARP completed resolutions, count"
scalar hierarchical.gw[1].networkLayer.arp 	initiatedARPResolution:count 	34
attr title  "ARP initiated resolutions, count"
scalar hierarchical.gw[1].networkLayer.arp 	sentReply:count 	38
attr title  "ARP replies sent, count"
scalar hierarchical.gw[1].networkLayer.arp 	sentReq:count 	34
attr title  "ARP request sent, count"
scalar hierarchical.gw[1].lo0.lo 	droppedPkBitError:count 	0
attr interpolationmode  none
attr source  dropPkBitError
attr title  "packets dropped/bit error, count"
scalar hierarchical.gw[1].lo0.lo 	droppedPkBitError:sum(packetBytes) 	0
attr interpolationmode  none
attr source  dropPkBitError
attr title  "packets dropped/bit error, sum(packetBytes)"
scalar hierarchical.gw[1].lo0.lo 	rcvdPkFromHL:count 	45
attr interpolationmode  none
attr source  packetReceivedFromUpper
attr title  "packets received from higher layer, count"
scalar hierarchical.gw[1].lo0.lo 	rcvdPkFromHL:sum(packetBytes) 	4221
attr interpolationmode  none
attr source  packetReceivedFromUpper
attr title  "packets received from higher layer, sum(packetBytes)"
scalar hierarchical.gw[1].lo0.lo 	passedUpPk:count 	45
attr interpolationmode  none
attr source  packetSentToUpper
attr title  "packets passed to higher layer, count"
scalar hierarchical.gw[1].lo0.lo 	passedUpPk:sum(packetBytes) 	4221
attr interpolationmode  none
attr source  packetSentToUpper
attr title  "packets passed to higher layer, sum(packetBytes)"
scalar hierarchical.gw[1].wlan[0].mgmt 	dataQueueLen:max 	2
attr interpolationmode  sample-hold
attr title  "data queue length, max"
scalar hierarchical.gw[1].wlan[0].mgmt 	dataQueueLen:timeavg 	9.0345314444444e-05
attr interpolationmode  sample-hold
attr title  "data queue length, timeavg"
scalar hierarchical.gw[1].wlan[0].mgmt 	dropPkByQueue:count 	0
attr interpolationmode  none
attr source  dropPkByQueue
attr title  "packets dropped by queue, count"
scalar hierarchical.gw[1].wlan[0].mgmt 	dropPkByQueue:sum(packetBytes) 	0
attr interpolationmode  none
attr source  dropPkByQueue
attr title  "packets dropped by queue, sum(packetBytes)"
scalar hierarchical.gw[1].wlan[0].mac 	"number of received packets" 	33022
scalar hierarchical.gw[1].wlan[0].mac 	"number of collisions" 	754
scalar hierarchical.gw[1].wlan[0].mac 	"number of internal collisions" 	0
scalar hierarchical.gw[1].wlan[0].mac 	"number of retry for AC 0" 	794
scalar hierarchical.gw[1].wlan[0].mac 	"sent and received bits" 	50232416
scalar hierarchical.gw[1].wlan[0].mac 	"sent packet within AC 0" 	32477
scalar hierarchical.gw[1].wlan[0].mac 	"sent in TXOP " 	0
scalar hierarchical.gw[1].wlan[0].mac 	"sentWithoutRetry AC 0" 	32339
scalar hierarchical.gw[1].wlan[0].mac 	"numGivenUp AC 0" 	99
scalar hierarchical.gw[1].wlan[0].mac 	"numDropped AC 0" 	0
scalar hierarchical.gw[1].wlan[0].mac 	rcvdPkFromHL:count 	33475
attr interpolationmode  none
attr source  packetReceivedFromUpper
attr title  "packets received from higher layer, count"
scalar hierarchical.gw[1].wlan[0].mac 	rcvdPkFromHL:sum(packetBytes) 	6297862
attr interpolationmode  none
attr source  packetReceivedFromUpper
attr title  "packets received from higher layer, sum(packetBytes)"
scalar hierarchical.gw[1].wlan[0].mac 	passedUpPk:count 	40102
attr interpolationmode  none
attr source  packetSentToUpper
attr title  "packets passed to higher layer, count"
scalar hierarchical.gw[1].wlan[0].mac 	passedUpPk:sum(packetBytes) 	7116188
attr interpolationmode  none
attr source  packetSentToUpper
attr title  "packets passed to higher layer, sum(packetBytes)"
scalar hierarchical.gw[1].wlan[0].mac 	rcvdPkFromLL:count 	120965
attr interpolationmode  none
attr source  packetReceivedFromLower
attr title  "packets received from lower layer, count"
scalar hierarchical.gw[1].wlan[0].mac 	rcvdPkFromLL:sum(packetBytes) 	12648642
attr interpolationmode  none
attr source  packetReceivedFromLower
attr title  "packets received from lower layer, sum(packetBytes)"
scalar hierarchical.gw[1].wlan[0].mac 	sentDownPk:count 	67291
attr interpolationmode  none
attr source  packetSentToLower
attr title  "packets sent to lower layer, count"
scalar hierarchical.gw[1].wlan[0].mac 	sentDownPk:sum(packetBytes) 	6911030
attr interpolationmode  none
attr source  packetSentToLower
attr title  "packets sent to lower layer, sum(packetBytes)"
scalar hierarchical.gw[1].wlan[0].radio 	lossRate:min 	0
attr interpolationmode  backward-sample-hold
attr title  "packet loss rate, min"
scalar hierarchical.gw[1].wlan[0].radio 	lossRate:max 	0.26
attr interpolationmode  backward-sample-hold
attr title  "packet loss rate, max"
scalar hierarchical.gw[1].wlan[0].radio 	lossRate:timeavg 	0.0048002411818339
attr interpolationmode  backward-sample-hold
attr title  "packet loss rate, timeavg"
statistic hierarchical.gw[1].wlan[0].radio 	channelNo:histogram
field count 1
field mean 1
field stddev -nan
field sum 1
field sqrsum 1
field min 1
field max 1
attr interpolationmode  sample-hold
attr title  "channel no, histogram"
bin	-INF	0
bin	0	0
bin	1	1
bin	2	0
scalar hierarchical.gw[1].wlan[0].radio 	bitrate:min 	11000000
attr interpolationmode  sample-hold
attr title  "tx bitrate, min"
attr unit  bps
scalar hierarchical.gw[1].wlan[0].radio 	bitrate:max 	11000000
attr interpolationmode  sample-hold
attr title  "tx bitrate, max"
attr unit  bps
scalar hierarchical.gw[1].wlan[0].radio 	bitrate:timeavg 	11000000
attr interpolationmode  sample-hold
attr title  "tx bitrate, timeavg"
attr unit  bps
scalar hierarchical.gw[1].wlan[0].radio 	radioState:count 	376611
attr interpolationmode  sample-hold
attr title  "radio state (enum), count"
scalar hierarchical.gw[1].wlan[1].mgmt 	dataQueueLen:max 	7
attr interpolationmode  sample-hold
attr title  "data queue length, max"
scalar hierarchical.gw[1].wlan[1].mgmt 	dataQueueLen:timeavg 	0.00091029941444444
attr interpolationmode  sample-hold
attr title  "data queue length, timeavg"
scalar hierarchical.gw[1].wlan[1].mgmt 	dropPkByQueue:count 	0
attr interpolationmode  none
attr source  dropPkByQueue
attr title  "packets dropped by queue, count"
scalar hierarchical.gw[1].wlan[1].mgmt 	dropPkByQueue:sum(packetBytes) 	0
attr interpolationmode  none
attr source  dropPkByQueue
attr title  "packets dropped by queue, sum(packetBytes)"
scalar hierarchical.gw[1].wlan[1].mac 	"number of received packets" 	33077
scalar hierarchical.gw[1].wlan[1].mac 	"number of collisions" 	785
scalar hierarchical.gw[1].wlan[1].mac 	"number of internal collisions" 	0
scalar hierarchical.gw[1].wlan[1].mac 	"number of retry for AC 0" 	283
scalar hierarchical.gw[1].wlan[1].mac 	"sent and received bits" 	55950644
scalar hierarchical.gw[1].wlan[1].mac 	"sent packet within AC 0" 	33283
scalar hierarchical.gw[1].wlan[1].mac 	"sent in TXOP " 	0
scalar hierarchical.gw[1].wlan[1].mac 	"sentWithoutRetry AC 0" 	33089
scalar hierarchical.gw[1].wlan[1].mac 	"numGivenUp AC 0" 	5
scalar hierarchical.gw[1].wlan[1].mac 	"numDropped AC 0" 	0
scalar hierarchical.gw[1].wlan[1].mac 	rcvdPkFromHL:count 	34170
attr interpolationmode  none
attr source  packetReceivedFromUpper
attr title  "packets received from higher layer, count"
scalar hierarchical.gw[1].wlan[1].mac 	rcvdPkFromHL:sum(packetBytes) 	6994604
attr interpolationmode  none
attr source  packetReceivedFromUpper
attr title  "packets received from higher layer, sum(packetBytes)"
scalar hierarchical.gw[1].wlan[1].mac 	passedUpPk:count 	38219
attr interpolationmode  none
attr source  packetSentToUpper
attr title  "packets passed to higher layer, count"
scalar hierarchical.gw[1].wlan[1].mac 	passedUpPk:sum(packetBytes) 	7435283
attr interpolationmode  none
attr source  packetSentToUpper
attr title  "packets passed to higher layer, sum(packetBytes)"
scalar hierarchical.gw[1].wlan[1].mac 	rcvdPkFromLL:count 	229060
attr interpolationmode  none
attr source  packetReceivedFromLower
attr title  "packets received from lower layer, count"
scalar hierarchical.gw[1].wlan[1].mac 	rcvdPkFromLL:sum(packetBytes) 	25166253
attr interpolationmode  none
attr source  packetReceivedFromLower
attr title  "packets received from lower layer, sum(packetBytes)"
scalar hierarchical.gw[1].wlan[1].mac 	sentDownPk:count 	67530
attr interpolationmode  none
attr source  packetSentToLower
attr title  "packets sent to lower layer, count"
scalar hierarchical.gw[1].wlan[1].mac 	sentDownPk:sum(packetBytes) 	7510996
attr interpolationmode  none
attr source  packetSentToLower
attr title  "packets sent to lower layer, sum(packetBytes)"
scalar hierarchical.gw[1].wlan[1].radio 	lossRate:min 	0
attr interpolationmode  backward-sample-hold
attr title  "packet loss rate, min"
scalar hierarchical.gw[1].wlan[1].radio 	lossRate:max 	0.26
attr interpolationmode  backward-sample-hold
attr title  "packet loss rate, max"
scalar hierarchical.gw[1].wlan[1].radio 	lossRate:timeavg 	0.0075402091207449
attr interpolationmode  backward-sample-hold
attr title  "packet loss rate, timeavg"
statistic hierarchical.gw[1].wlan[1].radio 	channelNo:histogram
field count 1
field mean 8
field stddev -nan
field sum 8
field sqrsum 64
field min 8
field max 8
attr interpolationmode  sample-hold
attr title  "channel no, histogram"
bin	-INF	0
bin	7	0
bin	8	1
bin	9	0
scalar hierarchical.gw[1].wlan[1].radio 	bitrate:min 	11000000
attr interpolationmode  sample-hold
attr title  "tx bitrate, min"
attr unit  bps
scalar hierarchical.gw[1].wlan[1].radio 	bitrate:max 	11000000
attr interpolationmode  sample-hold
attr title  "tx bitrate, max"
attr unit  bps
scalar hierarchical.gw[1].wlan[1].radio 	bitrate:timeavg 	11000000
attr interpolationmode  sample-hold
attr title  "tx bitrate, timeavg"
attr unit  bps
scalar hierarchical.gw[1].wlan[1].radio 	radioState:count 	593193
attr interpolationmode  sample-hold
attr title  "radio state (enum), count"
scalar hierarchical.gw[1].manetrouting 	OLSR_HNA_Messages_(Forwarded) 	0
scalar hierarchical.gw[1].manetrouting 	OLSR_TC_Messages_(Forwarded) 	292
scalar hierarchical.gw[1].manetrouting 	OLSR_Total_HELLO 	515
scalar hierarchical.gw[1].manetrouting 	OLSR_Total_HNA_(originated) 	189
scalar hierarchical.gw[1].manetrouting 	OLSR_Total_TC 	30
scalar hierarchical.gw[1].manetrouting 	OLSR_Total_Messages_Sent 	1026
scalar hierarchical.gw[1].backbonemanetrouting 	OLSR_HNA_Messages_(Forwarded) 	0
scalar hierarchical.gw[1].backbonemanetrouting 	OLSR_TC_Messages_(Forwarded) 	561
scalar hierarchical.gw[1].backbonemanetrouting 	OLSR_Total_HELLO 	511
scalar hierarchical.gw[1].backbonemanetrouting 	OLSR_Total_HNA_(originated) 	0
scalar hierarchical.gw[1].backbonemanetrouting 	OLSR_Total_TC 	105
scalar hierarchical.gw[1].backbonemanetrouting 	OLSR_Total_Messages_Sent 	1177
scalar hierarchical.gw[1].udp 	droppedPkBadChecksum:count 	0
attr interpolationmode  none
attr title  "packets dropped (checksum error), count"
scalar hierarchical.gw[1].udp 	droppedPkWrongPort:count 	0
attr interpolationmode  none
attr title  "packets dropped (wrong port), count"
scalar hierarchical.gw[1].udp 	passedUpPk:count 	946
attr interpolationmode  none
attr title  "packets passed up, count"
scalar hierarchical.gw[1].udp 	rcvdPk:count 	946
attr interpolationmode  none
attr source  rcvdPk
attr title  "packets received, count"
scalar hierarchical.gw[1].udp 	rcvdPk:sum(packetBytes) 	65012
attr interpolationmode  none
attr source  rcvdPk
attr title  "packets received, sum(packetBytes)"
scalar hierarchical.gw[1].udp 	sentPk:count 	1004
attr interpolationmode  none
attr source  sentPk
attr title  "packets sent, count"
scalar hierarchical.gw[1].udp 	sentPk:sum(packetBytes) 	67955
attr interpolationmode  none
attr source  sentPk
attr title  "packets sent, sum(packetBytes)"
scalar hierarchical.gw[1].pingApp[0] 	numOutOfOrderArrivals:last 	-nan
attr interpolationmode  none
attr title  "ping out-of-order arrivals, last"
scalar hierarchical.gw[1].pingApp[0] 	pingRxSeq:count 	0
attr interpolationmode  none
attr title  "ping rx seq, count"
scalar hierarchical.gw[1].pingApp[0] 	pingTxSeq:count 	0
attr interpolationmode  none
attr title  "ping tx seq, count"
scalar hierarchical.gw[1].pingApp[0] 	numLost:last 	-nan
attr interpolationmode  none
attr title  "pings lost, last"
statistic hierarchical.gw[1].pingApp[0] 	rtt:histogram
field count 0
field mean -nan
field stddev -nan
field sum 0
field sqrsum 0
field min -nan
field max -nan
attr interpolationmode  none
attr title  "ping round-trip time, histogram"
attr unit  s
bin	-INF	0
bin	-0.5	0
bin	-0.46666666666667	0
bin	-0.43333333333333	0
bin	-0.4	0
bin	-0.36666666666667	0
bin	-0.33333333333333	0
bin	-0.3	0
bin	-0.26666666666667	0
bin	-0.23333333333333	0
bin	-0.2	0
bin	-0.16666666666667	0
bin	-0.13333333333333	0
bin	-0.1	0
bin	-0.066666666666667	0
bin	-0.033333333333333	0
bin	0	0
bin	0.033333333333333	0
bin	0.066666666666667	0
bin	0.1	0
bin	0.13333333333333	0
bin	0.16666666666667	0
bin	0.2	0
bin	0.23333333333333	0
bin	0.26666666666667	0
bin	0.3	0
bin	0.33333333333333	0
bin	0.36666666666667	0
bin	0.4	0
bin	0.43333333333333	0
bin	0.46666666666667	0
bin	0.5	0
scalar hierarchical.gw[1].pingTestApp[0] 	numOutOfOrderArrivals:last 	-nan
attr interpolationmode  none
attr title  "ping out-of-order arrivals, last"
scalar hierarchical.gw[1].pingTestApp[0] 	pingRxSeq:count 	0
attr interpolationmode  none
attr title  "ping rx seq, count"
scalar hierarchical.gw[1].pingTestApp[0] 	pingTxSeq:count 	0
attr interpolationmode  none
attr title  "ping tx seq, count"
scalar hierarchical.gw[1].pingTestApp[0] 	numLost:last 	-nan
attr interpolationmode  none
attr title  "pings lost, last"
statistic hierarchical.gw[1].pingTestApp[0] 	rtt:histogram
field count 0
field mean -nan
field stddev -nan
field sum 0
field sqrsum 0
field min -nan
field max -nan
attr interpolationmode  none
attr title  "ping round-trip time, histogram"
attr unit  s
bin	-INF	0
bin	-0.5	0
bin	-0.46666666666667	0
bin	-0.43333333333333	0
bin	-0.4	0
bin	-0.36666666666667	0
bin	-0.33333333333333	0
bin	-0.3	0
bin	-0.26666666666667	0
bin	-0.23333333333333	0
bin	-0.2	0
bin	-0.16666666666667	0
bin	-0.13333333333333	0
bin	-0.1	0
bin	-0.066666666666667	0
bin	-0.033333333333333	0
bin	0	0
bin	0.033333333333333	0
bin	0.066666666666667	0
bin	0.1	0
bin	0.13333333333333	0
bin	0.16666666666667	0
bin	0.2	0
bin	0.23333333333333	0
bin	0.26666666666667	0
bin	0.3	0
bin	0.33333333333333	0
bin	0.36666666666667	0
bin	0.4	0
bin	0.43333333333333	0
bin	0.46666666666667	0
bin	0.5	0
scalar hierarchical.gw[2].networkLayer.arp 	failedARPResolution:count 	0
attr title  "ARP failed resolutions, count"
scalar hierarchical.gw[2].networkLayer.arp 	completedARPResolution:count 	155
attr title  "ARP completed resolutions, count"
scalar hierarchical.gw[2].networkLayer.arp 	initiatedARPResolution:count 	61
attr title  "ARP initiated resolutions, count"
scalar hierarchical.gw[2].networkLayer.arp 	sentReply:count 	12
attr title  "ARP replies sent, count"
scalar hierarchical.gw[2].networkLayer.arp 	sentReq:count 	63
attr title  "ARP request sent, count"
scalar hierarchical.gw[2].lo0.lo 	droppedPkBitError:count 	0
attr interpolationmode  none
attr source  dropPkBitError
attr title  "packets dropped/bit error, count"
scalar hierarchical.gw[2].lo0.lo 	droppedPkBitError:sum(packetBytes) 	0
attr interpolationmode  none
attr source  dropPkBitError
attr title  "packets dropped/bit error, sum(packetBytes)"
scalar hierarchical.gw[2].lo0.lo 	rcvdPkFromHL:count 	46
attr interpolationmode  none
attr source  packetReceivedFromUpper
attr title  "packets received from higher layer, count"
scalar hierarchical.gw[2].lo0.lo 	rcvdPkFromHL:sum(packetBytes) 	4277
attr interpolationmode  none
attr source  packetReceivedFromUpper
attr title  "packets received from higher layer, sum(packetBytes)"
scalar hierarchical.gw[2].lo0.lo 	passedUpPk:count 	46
attr interpolationmode  none
attr source  packetSentToUpper
attr title  "packets passed to higher layer, count"
scalar hierarchical.gw[2].lo0.lo 	passedUpPk:sum(packetBytes) 	4277
attr interpolationmode  none
attr source  packetSentToUpper
attr title  "packets passed to higher layer, sum(packetBytes)"
scalar hierarchical.gw[2].wlan[0].mgmt 	dataQueueLen:max 	2
attr interpolationmode  sample-hold
attr title  "data queue length, max"
scalar hierarchical.gw[2].wlan[0].mgmt 	dataQueueLen:timeavg 	0.00012835076444444
attr interpolationmode  sample-hold
attr title  "data queue length, timeavg"
scalar hierarchical.gw[2].wlan[0].mgmt 	dropPkByQueue:count 	0
attr interpolationmode  none
attr source  dropPkByQueue
attr title  "packets dropped by queue, count"
scalar hierarchical.gw[2].wlan[0].mgmt 	dropPkByQueue:sum(packetBytes) 	0
attr interpolationmode  none
attr source  dropPkByQueue
attr title  "packets dropped by queue, sum(packetBytes)"
scalar hierarchical.gw[2].wlan[0].mac 	"number of received packets" 	36913
scalar hierarchical.gw[2].wlan[0].mac 	"number of collisions" 	272
scalar hierarchical.gw[2].wlan[0].mac 	"number of internal collisions" 	0
scalar hierarchical.gw[2].wlan[0].mac 	"number of retry for AC 0" 	687
scalar hierarchical.gw[2].wlan[0].mac 	"sent and received bits" 	56484240
scalar hierarchical.gw[2].wlan[0].mac 	"sent packet within AC 0" 	36485
scalar hierarchical.gw[2].wlan[0].mac 	"sent in TXOP " 	0
scalar hierarchical.gw[2].wlan[0].mac 	"sentWithoutRetry AC 0" 	36373
scalar hierarchical.gw[2].wlan[0].mac 	"numGivenUp AC 0" 	89
scalar hierarchical.gw[2].wlan[0].mac 	"numDropped AC 0" 	0
scalar hierarchical.gw[2].wlan[0].mac 	rcvdPkFromHL:count 	37672
attr interpolationmode  none
attr source  packetReceivedFromUpper
attr title  "packets received from higher layer, count"
scalar hierarchical.gw[2].wlan[0].mac 	rcvdPkFromHL:sum(packetBytes) 	7077440
attr interpolationmode  none
attr source  packetReceivedFromUpper
attr title  "packets received from higher layer, sum(packetBytes)"
scalar hierarchical.gw[2].wlan[0].mac 	passedUpPk:count 	43646
attr interpolationmode  none
attr source  packetSentToUpper
attr title  "packets passed to higher layer, count"
scalar hierarchical.gw[2].wlan[0].mac 	passedUpPk:sum(packetBytes) 	7833428
attr interpolationmode  none
attr source  packetSentToUpper
attr title  "packets passed to higher layer, sum(packetBytes)"
scalar hierarchical.gw[2].wlan[0].mac 	rcvdPkFromLL:count 	110636
attr interpolationmode  none
attr source  packetReceivedFromLower
attr title  "packets received from lower layer, count"
scalar hierarchical.gw[2].wlan[0].mac 	rcvdPkFromLL:sum(packetBytes) 	11491344
attr interpolationmode  none
attr source  packetReceivedFromLower
attr title  "packets received from lower layer, sum(packetBytes)"
scalar hierarchical.gw[2].wlan[0].mac 	sentDownPk:count 	75272
attr interpolationmode  none
attr source  packetSentToLower
attr title  "packets sent to lower layer, count"
scalar hierarchical.gw[2].wlan[0].mac 	sentDownPk:sum(packetBytes) 	7724752
attr interpolationmode  none
attr source  packetSentToLower
attr title  "packets sent to lower layer, sum(packetBytes)"
scalar hierarchical.gw[2].wlan[0].radio 	lossRate:min 	0
attr interpolationmode  backward-sample-hold
attr title  "packet loss rate, min"
scalar hierarchical.gw[2].wlan[0].radio 	lossRate:max 	0.16
attr interpolationmode  backward-sample-hold
attr title  "packet loss rate, max"
scalar hierarchical.gw[2].wlan[0].radio 	lossRate:timeavg 	0.0019320080726898
attr interpolationmode  backward-sample-hold
attr title  "packet loss rate, timeavg"
statistic hierarchical.gw[2].wlan[0].radio 	channelNo:histogram
field count 1
field mean 2
field stddev -nan
field sum 2
field sqrsum 4
field min 2
field max 2
attr interpolationmode  sample-hold
attr title  "channel no, histogram"
bin	-INF	0
bin	1	0
bin	2	1
bin	3	0
scalar hierarchical.gw[2].wlan[0].radio 	bitrate:min 	11000000
attr interpolationmode  sample-hold
attr title  "tx bitrate, min"
attr unit  bps
scalar hierarchical.gw[2].wlan[0].radio 	bitrate:max 	11000000
attr interpolationmode  sample-hold
attr title  "tx bitrate, max"
attr unit  bps
scalar hierarchical.gw[2].wlan[0].radio 	bitrate:timeavg 	11000000
attr interpolationmode  sample-hold
attr title  "tx bitrate, timeavg"
attr unit  bps
scalar hierarchical.gw[2].wlan[0].radio 	radioState:count 	371987
attr interpolationmode  sample-hold
attr title  "radio state (enum), count"
scalar hierarchical.gw[2].wlan[1].mgmt 	dataQueueLen:max 	10
attr interpolationmode  sample-hold
attr title  "data queue length, max"
scalar hierarchical.gw[2].wlan[1].mgmt 	dataQueueLen:timeavg 	0.00032310752444444
attr interpolationmode  sample-hold
attr title  "data queue length, timeavg"
scalar hierarchical.gw[2].wlan[1].mgmt 	dropPkByQueue:count 	1
attr interpolationmode  none
attr source  dropPkByQueue
attr title  "packets dropped by queue, count"
scalar hierarchical.gw[2].wlan[1].mgmt 	dropPkByQueue:sum(packetBytes) 	184
attr interpolationmode  none
attr source  dropPkByQueue
attr title  "packets dropped by queue, sum(packetBytes)"
scalar hierarchical.gw[2].wlan[1].mac 	"number of received packets" 	37624
scalar hierarchical.gw[2].wlan[1].mac 	"number of collisions" 	840
scalar hierarchical.gw[2].wlan[1].mac 	"number of internal collisions" 	0
scalar hierarchical.gw[2].wlan[1].mac 	"number of retry for AC 0" 	284
scalar hierarchical.gw[2].wlan[1].mac 	"sent and received bits" 	63514915
scalar hierarchical.gw[2].wlan[1].mac 	"sent packet within AC 0" 	37741
scalar hierarchical.gw[2].wlan[1].mac 	"sent in TXOP " 	0
scalar hierarchical.gw[2].wlan[1].mac 	"sentWithoutRetry AC 0" 	37547
scalar hierarchical.gw[2].wlan[1].mac 	"numGivenUp AC 0" 	0
scalar hierarchical.gw[2].wlan[1].mac 	"numDropped AC 0" 	0
scalar hierarchical.gw[2].wlan[1].mac 	rcvdPkFromHL:count 	38593
attr interpolationmode  none
attr source  packetReceivedFromUpper
attr title  "packets received from higher layer, count"
scalar hierarchical.gw[2].wlan[1].mac 	rcvdPkFromHL:sum(packetBytes) 	7939535
attr interpolationmode  none
attr source  packetReceivedFromUpper
attr title  "packets received from higher layer, sum(packetBytes)"
scalar hierarchical.gw[2].wlan[1].mac 	passedUpPk:count 	42972
attr interpolationmode  none
attr source  packetSentToUpper
attr title  "packets passed to higher layer, count"
scalar hierarchical.gw[2].wlan[1].mac 	passedUpPk:sum(packetBytes) 	8418336
attr interpolationmode  none
attr source  packetSentToUpper
attr title  "packets passed to higher layer, sum(packetBytes)"
scalar hierarchical.gw[2].wlan[1].mac 	rcvdPkFromLL:count 	219911
attr interpolationmode  none
attr source  packetReceivedFromLower
attr title  "packets received from lower layer, count"
scalar hierarchical.gw[2].wlan[1].mac 	rcvdPkFromLL:sum(packetBytes) 	24141619
attr interpolationmode  none
attr source  packetReceivedFromLower
attr title  "packets received from lower layer, sum(packetBytes)"
scalar hierarchical.gw[2].wlan[1].mac 	sentDownPk:count 	76501
attr interpolationmode  none
attr source  packetSentToLower
attr title  "packets sent to lower layer, count"
scalar hierarchical.gw[2].wlan[1].mac 	sentDownPk:sum(packetBytes) 	8513831
attr interpolationmode  none
attr source  packetSentToLower
attr title  "packets sent to lower layer, sum(packetBytes)"
scalar hierarchical.gw[2].wlan[1].radio 	lossRate:min 	0
attr interpolationmode  backward-sample-hold
attr title  "packet loss rate, min"
scalar hierarchical.gw[2].wlan[1].radio 	lossRate:max 	0.3
attr interpolationmode  backward-sample-hold
attr title  "packet loss rate, max"
scalar hierarchical.gw[2].wlan[1].radio 	lossRate:timeavg 	0.0043865450361803
attr interpolationmode  backward-sample-hold
attr title  "packet loss rate, timeavg"
statistic hierarchical.gw[2].wlan[1].radio 	channelNo:histogram
field count 1
field mean 8
field stddev -nan
field sum 8
field sqrsum 64
field min 8
field max 8
attr interpolationmode  sample-hold
attr title  "channel no, histogram"
bin	-INF	0
bin	7	0
bin	8	1
bin	9	0
scalar hierarchical.gw[2].wlan[1].radio 	bitrate:min 	11000000
attr interpolationmode  sample-hold
attr title  "tx bitrate, min"
attr unit  bps
scalar hierarchical.gw[2].wlan[1].radio 	bitrate:max 	11000000
attr interpolationmode  sample-hold
attr title  "tx bitrate, max"
attr unit  bps
scalar hierarchical.gw[2].wlan[1].radio 	bitrate:timeavg 	11000000
attr interpolationmode  sample-hold
attr title  "tx bitrate, timeavg"
attr unit  bps
scalar hierarchical.gw[2].wlan[1].radio 	radioState:count 	592788
attr interpolationmode  sample-hold
attr title  "radio state (enum), count"
scalar hierarchical.gw[2].manetrouting 	OLSR_HNA_Messages_(Forwarded) 	0
scalar hierarchical.gw[2].manetrouting 	OLSR_TC_Messages_(Forwarded) 	190
scalar hierarchical.gw[2].manetrouting 	OLSR_Total_HELLO 	513
scalar hierarchical.gw[2].manetrouting 	OLSR_Total_HNA_(originated) 	190
scalar hierarchical.gw[2].manetrouting 	OLSR_Total_TC 	166
scalar hierarchical.gw[2].manetrouting 	OLSR_Total_Messages_Sent 	1059
scalar hierarchical.gw[2].backbonemanetrouting 	OLSR_HNA_Messages_(Forwarded) 	0
scalar hierarchical.gw[2].backbonemanetrouting 	OLSR_TC_Messages_(Forwarded) 	551
scalar hierarchical.gw[2].backbonemanetrouting 	OLSR_Total_HELLO 	516
scalar hierarchical.gw[2].backbonemanetrouting 	OLSR_Total_HNA_(originated) 	0
scalar hierarchical.gw[2].backbonemanetrouting 	OLSR_Total_TC 	122
scalar hierarchical.gw[2].backbonemanetrouting 	OLSR_Total_Messages_Sent 	1189
scalar hierarchical.gw[2].udp 	droppedPkBadChecksum:count 	0
attr interpolationmode  none
attr title  "packets dropped (checksum error), count"
scalar hierarchical.gw[2].udp 	droppedPkWrongPort:count 	0
attr interpolationmode  none
attr title  "packets dropped (wrong port), count"
scalar hierarchical.gw[2].udp 	passedUpPk:count 	993
attr interpolationmode  none
attr title  "packets passed up, count"
scalar hierarchical.gw[2].udp 	rcvdPk:count 	993
attr interpolationmode  none
attr source  rcvdPk
attr title  "packets received, count"
scalar hierarchical.gw[2].udp 	rcvdPk:sum(packetBytes) 	67743
attr interpolationmode  none
attr source  rcvdPk
attr title  "packets received, sum(packetBytes)"
scalar hierarchical.gw[2].udp 	sentPk:count 	1032
attr interpolationmode  none
attr source  sentPk
attr title  "packets sent, count"
scalar hierarchical.gw[2].udp 	sentPk:sum(packetBytes) 	72321
attr interpolationmode  none
attr source  sentPk
attr title  "packets sent, sum(packetBytes)"
scalar hierarchical.gw[2].pingApp[0] 	numOutOfOrderArrivals:last 	-nan
attr interpolationmode  none
attr title  "ping out-of-order arrivals, last"
scalar hierarchical.gw[2].pingApp[0] 	pingRxSeq:count 	0
attr interpolationmode  none
attr title  "ping rx seq, count"
scalar hierarchical.gw[2].pingApp[0] 	pingTxSeq:count 	0
attr interpolationmode  none
attr title  "ping tx seq, count"
scalar hierarchical.gw[2].pingApp[0] 	numLost:last 	-nan
attr interpolationmode  none
attr title  "pings lost, last"
statistic hierarchical.gw[2].pingApp[0] 	rtt:histogram
field count 0
field mean -nan
field stddev -nan
field sum 0
field sqrsum 0
field min -nan
field max -nan
attr interpolationmode  none
attr title  "ping round-trip time, histogram"
attr unit  s
bin	-INF	0
bin	-0.5	0
bin	-0.46666666666667	0
bin	-0.43333333333333	0
bin	-0.4	0
bin	-0.36666666666667	0
bin	-0.33333333333333	0
bin	-0.3	0
bin	-0.26666666666667	0
bin	-0.23333333333333	0
bin	-0.2	0
bin	-0.16666666666667	0
bin	-0.13333333333333	0
bin	-0.1	0
bin	-0.066666666666667	0
bin	-0.033333333333333	0
bin	0	0
bin	0.033333333333333	0
bin	0.066666666666667	0
bin	0.1	0
bin	0.13333333333333	0
bin	0.16666666666667	0
bin	0.2	0
bin	0.23333333333333	0
bin	0.26666666666667	0
bin	0.3	0
bin	0.33333333333333	0
bin	0.36666666666667	0
bin	0.4	0
bin	0.43333333333333	0
bin	0.46666666666667	0
bin	0.5	0
scalar hierarchical.gw[2].pingTestApp[0] 	numOutOfOrderArrivals:last 	-nan
attr interpolationmode  none
attr title  "ping out-of-order arrivals, last"
scalar hierarchical.gw[2].pingTestApp[0] 	pingRxSeq:count 	0
attr interpolationmode  none
attr title  "ping rx seq, count"
scalar hierarchical.gw[2].pingTestApp[0] 	pingTxSeq:count 	0
attr interpolationmode  none
attr title  "ping tx seq, count"
scalar hierarchical.gw[2].pingTestApp[0] 	numLost:last 	-nan
attr interpolationmode  none
attr title  "pings lost, last"
statistic hierarchical.gw[2].pingTestApp[0] 	rtt:histogram
field count 0
field mean -nan
field stddev -nan
field sum 0
field sqrsum 0
field min -nan
field max -nan
attr interpolationmode  none
attr title  "ping round-trip time, histogram"
attr unit  s
bin	-INF	0
bin	-0.5	0
bin	-0.46666666666667	0
bin	-0.43333333333333	0
bin	-0.4	0
bin	-0.36666666666667	0
bin	-0.33333333333333	0
bin	-0.3	0
bin	-0.26666666666667	0
bin	-0.23333333333333	0
bin	-0.2	0
bin	-0.16666666666667	0
bin	-0.13333333333333	0
bin	-0.1	0
bin	-0.066666666666667	0
bin	-0.033333333333333	0
bin	0	0
bin	0.033333333333333	0
bin	0.066666666666667	0
bin	0.1	0
bin	0.13333333333333	0
bin	0.16666666666667	0
bin	0.2	0
bin	0.23333333333333	0
bin	0.26666666666667	0
bin	0.3	0
bin	0.33333333333333	0
bin	0.36666666666667	0
bin	0.4	0
bin	0.43333333333333	0
bin	0.46666666666667	0
bin	0.5	0
scalar hierarchical.gw[3].networkLayer.arp 	failedARPResolution:count 	0
attr title  "ARP failed resolutions, count"
scalar hierarchical.gw[3].networkLayer.arp 	completedARPResolution:count 	174
attr title  "ARP completed resolutions, count"
scalar hierarchical.gw[3].networkLayer.arp 	initiatedARPResolution:count 	46
attr title  "ARP initiated resolutions, count"
scalar hierarchical.gw[3].networkLayer.arp 	sentReply:count 	25
attr title  "ARP replies sent, count"
scalar hierarchical.gw[3].networkLayer.arp 	sentReq:count 	48
attr title  "ARP request sent, count"
scalar hierarchical.gw[3].lo0.lo 	droppedPkBitError:count 	0
attr interpolationmode  none
attr source  dropPkBitError
attr title  "packets dropped/bit error, count"
scalar hierarchical.gw[3].lo0.lo 	droppedPkBitError:sum(packetBytes) 	0
attr interpolationmode  none
attr source  dropPkBitError
attr title  "packets dropped/bit error, sum(packetBytes)"
scalar hierarchical.gw[3].lo0.lo 	rcvdPkFromHL:count 	35
attr interpolationmode  none
attr source  packetReceivedFromUpper
attr title  "packets received from higher layer, count"
scalar hierarchical.gw[3].lo0.lo 	rcvdPkFromHL:sum(packetBytes) 	3242
attr interpolationmode  none
attr source  packetReceivedFromUpper
attr title  "packets received from higher layer, sum(packetBytes)"
scalar hierarchical.gw[3].lo0.lo 	passedUpPk:count 	35
attr interpolationmode  none
attr source  packetSentToUpper
attr title  "packets passed to higher layer, count"
scalar hierarchical.gw[3].lo0.lo 	passedUpPk:sum(packetBytes) 	3242
attr interpolationmode  none
attr source  packetSentToUpper
attr title  "packets passed to higher layer, sum(packetBytes)"
scalar hierarchical.gw[3].wlan[0].mgmt 	dataQueueLen:max 	6
attr interpolationmode  sample-hold
attr title  "data queue length, max"
scalar hierarchical.gw[3].wlan[0].mgmt 	dataQueueLen:timeavg 	0.00278571462
attr interpolationmode  sample-hold
attr title  "data queue length, timeavg"
scalar hierarchical.gw[3].wlan[0].mgmt 	dropPkByQueue:count 	0
attr interpolationmode  none
attr source  dropPkByQueue
attr title  "packets dropped by queue, count"
scalar hierarchical.gw[3].wlan[0].mgmt 	dropPkByQueue:sum(packetBytes) 	0
attr interpolationmode  none
attr source  dropPkByQueue
attr title  "packets dropped by queue, sum(packetBytes)"
scalar hierarchical.gw[3].wlan[0].mac 	"number of received packets" 	38698
scalar hierarchical.gw[3].wlan[0].mac 	"number of collisions" 	794
scalar hierarchical.gw[3].wlan[0].mac 	"number of internal collisions" 	0
scalar hierarchical.gw[3].wlan[0].mac 	"number of retry for AC 0" 	3879
scalar hierarchical.gw[3].wlan[0].mac 	"sent and received bits" 	55780016
scalar hierarchical.gw[3].wlan[0].mac 	"sent packet within AC 0" 	36176
scalar hierarchical.gw[3].wlan[0].mac 	"sent in TXOP " 	0
scalar hierarchical.gw[3].wlan[0].mac 	"sentWithoutRetry AC 0" 	35926
scalar hierarchical.gw[3].wlan[0].mac 	"numGivenUp AC 0" 	586
scalar hierarchical.gw[3].wlan[0].mac 	"numDropped AC 0" 	0
scalar hierarchical.gw[3].wlan[0].mac 	rcvdPkFromHL:count 	37577
attr interpolationmode  none
attr source  packetReceivedFromUpper
attr title  "packets received from higher layer, count"
scalar hierarchical.gw[3].wlan[0].mac 	rcvdPkFromHL:sum(packetBytes) 	7083842
attr interpolationmode  none
attr source  packetReceivedFromUpper
attr title  "packets received from higher layer, sum(packetBytes)"
scalar hierarchical.gw[3].wlan[0].mac 	passedUpPk:count 	44229
attr interpolationmode  none
attr source  packetSentToUpper
attr title  "packets passed to higher layer, count"
scalar hierarchical.gw[3].wlan[0].mac 	passedUpPk:sum(packetBytes) 	7856322
attr interpolationmode  none
attr source  packetSentToUpper
attr title  "packets passed to higher layer, sum(packetBytes)"
scalar hierarchical.gw[3].wlan[0].mac 	rcvdPkFromLL:count 	130974
attr interpolationmode  none
attr source  packetReceivedFromLower
attr title  "packets received from lower layer, count"
scalar hierarchical.gw[3].wlan[0].mac 	rcvdPkFromLL:sum(packetBytes) 	13852880
attr interpolationmode  none
attr source  packetReceivedFromLower
attr title  "packets received from lower layer, sum(packetBytes)"
scalar hierarchical.gw[3].wlan[0].mac 	sentDownPk:count 	80154
attr interpolationmode  none
attr source  packetSentToLower
attr title  "packets sent to lower layer, count"
scalar hierarchical.gw[3].wlan[0].mac 	sentDownPk:sum(packetBytes) 	8362624
attr interpolationmode  none
attr source  packetSentToLower
attr title  "packets sent to lower layer, sum(packetBytes)"
scalar hierarchical.gw[3].wlan[0].radio 	lossRate:min 	0
attr interpolationmode  backward-sample-hold
attr title  "packet loss rate, min"
scalar hierarchical.gw[3].wlan[0].radio 	lossRate:max 	0.18
attr interpolationmode  backward-sample-hold
attr title  "packet loss rate, max"
scalar hierarchical.gw[3].wlan[0].radio 	lossRate:timeavg 	0.0047396541129186
attr interpolationmode  backward-sample-hold
attr title  "packet loss rate, timeavg"
statistic hierarchical.gw[3].wlan[0].radio 	channelNo:histogram
field count 1
field mean 3
field stddev -nan
field sum 3
field sqrsum 9
field min 3
field max 3
attr interpolationmode  sample-hold
attr title  "channel no, histogram"
bin	-INF	0
bin	2	0
bin	3	1
bin	4	0
scalar hierarchical.gw[3].wlan[0].radio 	bitrate:min 	11000000
attr interpolationmode  sample-hold
attr title  "tx bitrate, min"
attr unit  bps
scalar hierarchical.gw[3].wlan[0].radio 	bitrate:max 	11000000
attr interpolationmode  sample-hold
attr title  "tx bitrate, max"
attr unit  bps
scalar hierarchical.gw[3].wlan[0].radio 	bitrate:timeavg 	11000000
attr interpolationmode  sample-hold
attr title  "tx bitrate, timeavg"
attr unit  bps
scalar hierarchical.gw[3].wlan[0].radio 	radioState:count 	422831
attr interpolationmode  sample-hold
attr title  "radio state (enum), count"
scalar hierarchical.gw[3].wlan[1].mgmt 	dataQueueLen:max 	10
attr interpolationmode  sample-hold
attr title  "data queue length, max"
scalar hierarchical.gw[3].wlan[1].mgmt 	dataQueueLen:timeavg 	0.0014998627666667
attr interpolationmode  sample-hold
attr title  "data queue length, timeavg"
scalar hierarchical.gw[3].wlan[1].mgmt 	dropPkByQueue:count 	2
attr interpolationmode  none
attr source  dropPkByQueue
attr title  "packets dropped by queue, count"
scalar hierarchical.gw[3].wlan[1].mgmt 	dropPkByQueue:sum(packetBytes) 	261
attr interpolationmode  none
attr source  dropPkByQueue
attr title  "packets dropped by queue, sum(packetBytes)"
scalar hierarchical.gw[3].wlan[1].mac 	"number of received packets" 	37902
scalar hierarchical.gw[3].wlan[1].mac 	"number of collisions" 	505
scalar hierarchical.gw[3].wlan[1].mac 	"number of internal collisions" 	0
scalar hierarchical.gw[3].wlan[1].mac 	"number of retry for AC 0" 	420
scalar hierarchical.gw[3].wlan[1].mac 	"sent and received bits" 	63017394
scalar hierarchical.gw[3].wlan[1].mac 	"sent packet within AC 0" 	37546
scalar hierarchical.gw[3].wlan[1].mac 	"sent in TXOP " 	0
scalar hierarchical.gw[3].wlan[1].mac 	"sentWithoutRetry AC 0" 	37285
scalar hierarchical.gw[3].wlan[1].mac 	"numGivenUp AC 0" 	0
scalar hierarchical.gw[3].wlan[1].mac 	"numDropped AC 0" 	0
scalar hierarchical.gw[3].wlan[1].mac 	rcvdPkFromHL:count 	38301
attr interpolationmode  none
attr source  packetReceivedFromUpper
attr title  "packets received from higher layer, count"
scalar hierarchical.gw[3].wlan[1].mac 	rcvdPkFromHL:sum(packetBytes) 	7877390
attr interpolationmode  none
attr source  packetReceivedFromUpper
attr title  "packets received from higher layer, sum(packetBytes)"
scalar hierarchical.gw[3].wlan[1].mac 	passedUpPk:count 	42756
attr interpolationmode  none
attr source  packetSentToUpper
attr title  "packets passed to higher layer, count"
scalar hierarchical.gw[3].wlan[1].mac 	passedUpPk:sum(packetBytes) 	8417389
attr interpolationmode  none
attr source  packetSentToUpper
attr title  "packets passed to higher layer, sum(packetBytes)"
scalar hierarchical.gw[3].wlan[1].mac 	rcvdPkFromLL:count 	218732
attr interpolationmode  none
attr source  packetReceivedFromLower
attr title  "packets received from lower layer, count"
scalar hierarchical.gw[3].wlan[1].mac 	rcvdPkFromLL:sum(packetBytes) 	24100544
attr interpolationmode  none
attr source  packetReceivedFromLower
attr title  "packets received from lower layer, sum(packetBytes)"
scalar hierarchical.gw[3].wlan[1].mac 	sentDownPk:count 	76623
attr interpolationmode  none
attr source  packetSentToLower
attr title  "packets sent to lower layer, count"
scalar hierarchical.gw[3].wlan[1].mac 	sentDownPk:sum(packetBytes) 	8486476
attr interpolationmode  none
attr source  packetSentToLower
attr title  "packets sent to lower layer, sum(packetBytes)"
scalar hierarchical.gw[3].wlan[1].radio 	lossRate:min 	0
attr interpolationmode  backward-sample-hold
attr title  "packet loss rate, min"
scalar hierarchical.gw[3].wlan[1].radio 	lossRate:max 	0.18
attr interpolationmode  backward-sample-hold
attr title  "packet loss rate, max"
scalar hierarchical.gw[3].wlan[1].radio 	lossRate:timeavg 	0.0060701160080522
attr interpolationmode  backward-sample-hold
attr title  "packet loss rate, timeavg"
statistic hierarchical.gw[3].wlan[1].radio 	channelNo:histogram
field count 1
field mean 8
field stddev -nan
field sum 8
field sqrsum 64
field min 8
field max 8
attr interpolationmode  sample-hold
attr title  "channel no, histogram"
bin	-INF	0
bin	7	0
bin	8	1
bin	9	0
scalar hierarchical.gw[3].wlan[1].radio 	bitrate:min 	11000000
attr interpolationmode  sample-hold
attr title  "tx bitrate, min"
attr unit  bps
scalar hierarchical.gw[3].wlan[1].radio 	bitrate:max 	11000000
attr interpolationmode  sample-hold
attr title  "tx bitrate, max"
attr unit  bps
scalar hierarchical.gw[3].wlan[1].radio 	bitrate:timeavg 	11000000
attr interpolationmode  sample-hold
attr title  "tx bitrate, timeavg"
attr unit  bps
scalar hierarchical.gw[3].wlan[1].radio 	radioState:count 	590803
attr interpolationmode  sample-hold
attr title  "radio state (enum), count"
scalar hierarchical.gw[3].manetrouting 	OLSR_HNA_Messages_(Forwarded) 	0
scalar hierarchical.gw[3].manetrouting 	OLSR_TC_Messages_(Forwarded) 	535
scalar hierarchical.gw[3].manetrouting 	OLSR_Total_HELLO 	515
scalar hierarchical.gw[3].manetrouting 	OLSR_Total_HNA_(originated) 	190
scalar hierarchical.gw[3].manetrouting 	OLSR_Total_TC 	5
scalar hierarchical.gw[3].manetrouting 	OLSR_Total_Messages_Sent 	1245
scalar hierarchical.gw[3].backbonemanetrouting 	OLSR_HNA_Messages_(Forwarded) 	0
scalar hierarchical.gw[3].backbonemanetrouting 	OLSR_TC_Messages_(Forwarded) 	622
scalar hierarchical.gw[3].backbonemanetrouting 	OLSR_Total_HELLO 	514
scalar hierarchical.gw[3].backbonemanetrouting 	OLSR_Total_HNA_(originated) 	0
scalar hierarchical.gw[3].backbonemanetrouting 	OLSR_Total_TC 	41
scalar hierarchical.gw[3].backbonemanetrouting 	OLSR_Total_Messages_Sent 	1177
scalar hierarchical.gw[3].udp 	droppedPkBadChecksum:count 	0
attr interpolationmode  none
attr title  "packets dropped (checksum error), count"
scalar hierarchical.gw[3].udp 	droppedPkWrongPort:count 	0
attr interpolationmode  none
attr title  "packets dropped (wrong port), count"
scalar hierarchical.gw[3].udp 	passedUpPk:count 	1089
attr interpolationmode  none
attr title  "packets passed up, count"
scalar hierarchical.gw[3].udp 	rcvdPk:count 	1089
attr interpolationmode  none
attr source  rcvdPk
attr title  "packets received, count"
scalar hierarchical.gw[3].udp 	rcvdPk:sum(packetBytes) 	76845
attr interpolationmode  none
attr source  rcvdPk
attr title  "packets received, sum(packetBytes)"
scalar hierarchical.gw[3].udp 	sentPk:count 	1120
attr interpolationmode  none
attr source  sentPk
attr title  "packets sent, count"
scalar hierarchical.gw[3].udp 	sentPk:sum(packetBytes) 	76333
attr interpolationmode  none
attr source  sentPk
attr title  "packets sent, sum(packetBytes)"
scalar hierarchical.gw[3].pingApp[0] 	numOutOfOrderArrivals:last 	-nan
attr interpolationmode  none
attr title  "ping out-of-order arrivals, last"
scalar hierarchical.gw[3].pingApp[0] 	pingRxSeq:count 	0
attr interpolationmode  none
attr title  "ping rx seq, count"
scalar hierarchical.gw[3].pingApp[0] 	pingTxSeq:count 	0
attr interpolationmode  none
attr title  "ping tx seq, count"
scalar hierarchical.gw[3].pingApp[0] 	numLost:last 	-nan
attr interpolationmode  none
attr title  "pings lost, last"
statistic hierarchical.gw[3].pingApp[0] 	rtt:histogram
field count 0
field mean -nan
field stddev -nan
field sum 0
field sqrsum 0
field min -nan
field max -nan
attr interpolationmode  none
attr title  "ping round-trip time, histogram"
attr unit  s
bin	-INF	0
bin	-0.5	0
bin	-0.46666666666667	0
bin	-0.43333333333333	0
bin	-0.4	0
bin	-0.36666666666667	0
bin	-0.33333333333333	0
bin	-0.3	0
bin	-0.26666666666667	0
bin	-0.23333333333333	0
bin	-0.2	0
bin	-0.16666666666667	0
bin	-0.13333333333333	0
bin	-0.1	0
bin	-0.066666666666667	0
bin	-0.033333333333333	0
bin	0	0
bin	0.033333333333333	0
bin	0.066666666666667	0
bin	0.1	0
bin	0.13333333333333	0
bin	0.16666666666667	0
bin	0.2	0
bin	0.23333333333333	0
bin	0.26666666666667	0
bin	0.3	0
bin	0.33333333333333	0
bin	0.36666666666667	0
bin	0.4	0
bin	0.43333333333333	0
bin	0.46666666666667	0
bin	0.5	0
scalar hierarchical.gw[3].pingTestApp[0] 	numOutOfOrderArrivals:last 	-nan
attr interpolationmode  none
attr title  "ping out-of-order arrivals, last"
scalar hierarchical.gw[3].pingTestApp[0] 	pingRxSeq:count 	0
attr interpolationmode  none
attr title  "ping rx seq, count"
scalar hierarchical.gw[3].pingTestApp[0] 	pingTxSeq:count 	0
attr interpolationmode  none
attr title  "ping tx seq, count"
scalar hierarchical.gw[3].pingTestApp[0] 	numLost:last 	-nan
attr interpolationmode  none
attr title  "pings lost, last"
statistic hierarchical.gw[3].pingTestApp[0] 	rtt:histogram
field count 0
field mean -nan
field stddev -nan
field sum 0
field sqrsum 0
field min -nan
field max -nan
attr interpolationmode  none
attr title  "ping round-trip time, histogram"
attr unit  s
bin	-INF	0
bin	-0.5	0
bin	-0.46666666666667	0
bin	-0.43333333333333	0
bin	-0.4	0
bin	-0.36666666666667	0
bin	-0.33333333333333	0
bin	-0.3	0
bin	-0.26666666666667	0
bin	-0.23333333333333	0
bin	-0.2	0
bin	-0.16666666666667	0
bin	-0.13333333333333	0
bin	-0.1	0
bin	-0.066666666666667	0
bin	-0.033333333333333	0
bin	0	0
bin	0.033333333333333	0
bin	0.066666666666667	0
bin	0.1	0
bin	0.13333333333333	0
bin	0.16666666666667	0
bin	0.2	0
bin	0.23333333333333	0
bin	0.26666666666667	0
bin	0.3	0
bin	0.33333333333333	0
bin	0.36666666666667	0
bin	0.4	0
bin	0.43333333333333	0
bin	0.46666666666667	0
bin	0.5	0
scalar hierarchical.gw[4].networkLayer.arp 	failedARPResolution:count 	0
attr title  "ARP failed resolutions, count"
scalar hierarchical.gw[4].networkLayer.arp 	completedARPResolution:count 	69
attr title  "ARP completed resolutions, count"
scalar hierarchical.gw[4].networkLayer.arp 	initiatedARPResolution:count 	17
attr title  "ARP initiated resolutions, count"
scalar hierarchical.gw[4].networkLayer.arp 	sentReply:count 	7
attr title  "ARP replies sent, count"
scalar hierarchical.gw[4].networkLayer.arp 	sentReq:count 	21
attr title  "ARP request sent, count"
scalar hierarchical.gw[4].lo0.lo 	droppedPkBitError:count 	0
attr interpolationmode  none
attr source  dropPkBitError
attr title  "packets dropped/bit error, count"
scalar hierarchical.gw[4].lo0.lo 	droppedPkBitError:sum(packetBytes) 	0
attr interpolationmode  none
attr source  dropPkBitError
attr title  "packets dropped/bit error, sum(packetBytes)"
scalar hierarchical.gw[4].lo0.lo 	rcvdPkFromHL:count 	1
attr interpolationmode  none
attr source  packetReceivedFromUpper
attr title  "packets received from higher layer, count"
scalar hierarchical.gw[4].lo0.lo 	rcvdPkFromHL:sum(packetBytes) 	56
attr interpolationmode  none
attr source  packetReceivedFromUpper
attr title  "packets received from higher layer, sum(packetBytes)"
scalar hierarchical.gw[4].lo0.lo 	passedUpPk:count 	1
attr interpolationmode  none
attr source  packetSentToUpper
attr title  "packets passed to higher layer, count"
scalar hierarchical.gw[4].lo0.lo 	passedUpPk:sum(packetBytes) 	56
attr interpolationmode  none
attr source  packetSentToUpper
attr title  "packets passed to higher layer, sum(packetBytes)"
scalar hierarchical.gw[4].wlan[0].mgmt 	dataQueueLen:max 	0
attr interpolationmode  sample-hold
attr title  "data queue length, max"
scalar hierarchical.gw[4].wlan[0].mgmt 	dataQueueLen:timeavg 	0
attr interpolationmode  sample-hold
attr title  "data queue length, timeavg"
scalar hierarchical.gw[4].wlan[0].mgmt 	dropPkByQueue:count 	0
attr interpolationmode  none
attr source  dropPkByQueue
attr title  "packets dropped by queue, count"
scalar hierarchical.gw[4].wlan[0].mgmt 	dropPkByQueue:sum(packetBytes) 	0
attr interpolationmode  none
attr source  dropPkByQueue
attr title  "packets dropped by queue, sum(packetBytes)"
scalar hierarchical.gw[4].wlan[0].mac 	"number of received packets" 	0
scalar hierarchical.gw[4].wlan[0].mac 	"number of collisions" 	0
scalar hierarchical.gw[4].wlan[0].mac 	"number of internal collisions" 	0
scalar hierarchical.gw[4].wlan[0].mac 	"number of retry for AC 0" 	0
scalar hierarchical.gw[4].wlan[0].mac 	"sent and received bits" 	579616
scalar hierarchical.gw[4].wlan[0].mac 	"sent packet within AC 0" 	0
scalar hierarchical.gw[4].wlan[0].mac 	"sent in TXOP " 	0
scalar hierarchical.gw[4].wlan[0].mac 	"sentWithoutRetry AC 0" 	0
scalar hierarchical.gw[4].wlan[0].mac 	"numGivenUp AC 0" 	0
scalar hierarchical.gw[4].wlan[0].mac 	"numDropped AC 0" 	0
scalar hierarchical.gw[4].wlan[0].mac 	rcvdPkFromHL:count 	776
attr interpolationmode  none
attr source  packetReceivedFromUpper
attr title  "packets received from higher layer, count"
scalar hierarchical.gw[4].wlan[0].mac 	rcvdPkFromHL:sum(packetBytes) 	72452
attr interpolationmode  none
attr source  packetReceivedFromUpper
attr title  "packets received from higher layer, sum(packetBytes)"
scalar hierarchical.gw[4].wlan[0].mac 	passedUpPk:count 	0
attr interpolationmode  none
attr source  packetSentToUpper
attr title  "packets passed to higher layer, count"
scalar hierarchical.gw[4].wlan[0].mac 	passedUpPk:sum(packetBytes) 	0
attr interpolationmode  none
attr source  packetSentToUpper
attr title  "packets passed to higher layer, sum(packetBytes)"
scalar hierarchical.gw[4].wlan[0].mac 	rcvdPkFromLL:count 	0
attr interpolationmode  none
attr source  packetReceivedFromLower
attr title  "packets received from lower layer, count"
scalar hierarchical.gw[4].wlan[0].mac 	rcvdPkFromLL:sum(packetBytes) 	0
attr interpolationmode  none
attr source  packetReceivedFromLower
attr title  "packets received from lower layer, sum(packetBytes)"
scalar hierarchical.gw[4].wlan[0].mac 	sentDownPk:count 	776
attr interpolationmode  none
attr source  packetSentToLower
attr title  "packets sent to lower layer, count"
scalar hierarchical.gw[4].wlan[0].mac 	sentDownPk:sum(packetBytes) 	72452
attr interpolationmode  none
attr source  packetSentToLower
attr title  "packets sent to lower layer, sum(packetBytes)"
scalar hierarchical.gw[4].wlan[0].radio 	lossRate:min 	-nan
attr interpolationmode  backward-sample-hold
attr title  "packet loss rate, min"
scalar hierarchical.gw[4].wlan[0].radio 	lossRate:max 	-nan
attr interpolationmode  backward-sample-hold
attr title  "packet loss rate, max"
scalar hierarchical.gw[4].wlan[0].radio 	lossRate:timeavg 	-nan
attr interpolationmode  backward-sample-hold
attr title  "packet loss rate, timeavg"
statistic hierarchical.gw[4].wlan[0].radio 	channelNo:histogram
field count 1
field mean 4
field stddev -nan
field sum 4
field sqrsum 16
field min 4
field max 4
attr interpolationmode  sample-hold
attr title  "channel no, histogram"
bin	-INF	0
bin	3	0
bin	4	1
bin	5	0
scalar hierarchical.gw[4].wlan[0].radio 	bitrate:min 	11000000
attr interpolationmode  sample-hold
attr title  "tx bitrate, min"
attr unit  bps
scalar hierarchical.gw[4].wlan[0].radio 	bitrate:max 	11000000
attr interpolationmode  sample-hold
attr title  "tx bitrate, max"
attr unit  bps
scalar hierarchical.gw[4].wlan[0].radio 	bitrate:timeavg 	11000000
attr interpolationmode  sample-hold
attr title  "tx bitrate, timeavg"
attr unit  bps
scalar hierarchical.gw[4].wlan[0].radio 	radioState:count 	1553
attr interpolationmode  sample-hold
attr title  "radio state (enum), count"
scalar hierarchical.gw[4].wlan[1].mgmt 	dataQueueLen:max 	2
attr interpolationmode  sample-hold
attr title  "data queue length, max"
scalar hierarchical.gw[4].wlan[1].mgmt 	dataQueueLen:timeavg 	2.8234358888889e-05
attr interpolationmode  sample-hold
attr title  "data queue length, timeavg"
scalar hierarchical.gw[4].wlan[1].mgmt 	dropPkByQueue:count 	0
attr interpolationmode  none
attr source  dropPkByQueue
attr title  "packets dropped by queue, count"
scalar hierarchical.gw[4].wlan[1].mgmt 	dropPkByQueue:sum(packetBytes) 	0
attr interpolationmode  none
attr source  dropPkByQueue
attr title  "packets dropped by queue, sum(packetBytes)"
scalar hierarchical.gw[4].wlan[1].mac 	"number of received packets" 	817
scalar hierarchical.gw[4].wlan[1].mac 	"number of collisions" 	1077
scalar hierarchical.gw[4].wlan[1].mac 	"number of internal collisions" 	0
scalar hierarchical.gw[4].wlan[1].mac 	"number of retry for AC 0" 	125
scalar hierarchical.gw[4].wlan[1].mac 	"sent and received bits" 	1465847
scalar hierarchical.gw[4].wlan[1].mac 	"sent packet within AC 0" 	790
scalar hierarchical.gw[4].wlan[1].mac 	"sent in TXOP " 	0
scalar hierarchical.gw[4].wlan[1].mac 	"sentWithoutRetry AC 0" 	736
scalar hierarchical.gw[4].wlan[1].mac 	"numGivenUp AC 0" 	1
scalar hierarchical.gw[4].wlan[1].mac 	"numDropped AC 0" 	0
scalar hierarchical.gw[4].wlan[1].mac 	rcvdPkFromHL:count 	1543
attr interpolationmode  none
attr source  packetReceivedFromUpper
attr title  "packets received from higher layer, count"
scalar hierarchical.gw[4].wlan[1].mac 	rcvdPkFromHL:sum(packetBytes) 	183416
attr interpolationmode  none
attr source  packetReceivedFromUpper
attr title  "packets received from higher layer, sum(packetBytes)"
scalar hierarchical.gw[4].wlan[1].mac 	passedUpPk:count 	5504
attr interpolationmode  none
attr source  packetSentToUpper
attr title  "packets passed to higher layer, count"
scalar hierarchical.gw[4].wlan[1].mac 	passedUpPk:sum(packetBytes) 	630125
attr interpolationmode  none
attr source  packetSentToUpper
attr title  "packets passed to higher layer, sum(packetBytes)"
scalar hierarchical.gw[4].wlan[1].mac 	rcvdPkFromLL:count 	263441
attr interpolationmode  none
attr source  packetReceivedFromLower
attr title  "packets received from lower layer, count"
scalar hierarchical.gw[4].wlan[1].mac 	rcvdPkFromLL:sum(packetBytes) 	29105415
attr interpolationmode  none
attr source  packetReceivedFromLower
attr title  "packets received from lower layer, sum(packetBytes)"
scalar hierarchical.gw[4].wlan[1].mac 	sentDownPk:count 	2485
attr interpolationmode  none
attr source  packetSentToLower
attr title  "packets sent to lower layer, count"
scalar hierarchical.gw[4].wlan[1].mac 	sentDownPk:sum(packetBytes) 	212365
attr interpolationmode  none
attr source  packetSentToLower
attr title  "packets sent to lower layer, sum(packetBytes)"
scalar hierarchical.gw[4].wlan[1].radio 	lossRate:min 	0
attr interpolationmode  backward-sample-hold
attr title  "packet loss rate, min"
scalar hierarchical.gw[4].wlan[1].radio 	lossRate:max 	0.24
attr interpolationmode  backward-sample-hold
attr title  "packet loss rate, max"
scalar hierarchical.gw[4].wlan[1].radio 	lossRate:timeavg 	0.0078410933547442
attr interpolationmode  backward-sample-hold
attr title  "packet loss rate, timeavg"
statistic hierarchical.gw[4].wlan[1].radio 	channelNo:histogram
field count 1
field mean 8
field stddev -nan
field sum 8
field sqrsum 64
field min 8
field max 8
attr interpolationmode  sample-hold
attr title  "channel no, histogram"
bin	-INF	0
bin	7	0
bin	8	1
bin	9	0
scalar hierarchical.gw[4].wlan[1].radio 	bitrate:min 	11000000
attr interpolationmode  sample-hold
attr title  "tx bitrate, min"
attr unit  bps
scalar hierarchical.gw[4].wlan[1].radio 	bitrate:max 	11000000
attr interpolationmode  sample-hold
attr title  "tx bitrate, max"
attr unit  bps
scalar hierarchical.gw[4].wlan[1].radio 	bitrate:timeavg 	11000000
attr interpolationmode  sample-hold
attr title  "tx bitrate, timeavg"
attr unit  bps
scalar hierarchical.gw[4].wlan[1].radio 	radioState:count 	531910
attr interpolationmode  sample-hold
attr title  "radio state (enum), count"
scalar hierarchical.gw[4].manetrouting 	OLSR_HNA_Messages_(Forwarded) 	0
scalar hierarchical.gw[4].manetrouting 	OLSR_TC_Messages_(Forwarded) 	0
scalar hierarchical.gw[4].manetrouting 	OLSR_Total_HELLO 	514
scalar hierarchical.gw[4].manetrouting 	OLSR_Total_HNA_(originated) 	189
scalar hierarchical.gw[4].manetrouting 	OLSR_Total_TC 	0
scalar hierarchical.gw[4].manetrouting 	OLSR_Total_Messages_Sent 	703
scalar hierarchical.gw[4].backbonemanetrouting 	OLSR_HNA_Messages_(Forwarded) 	0
scalar hierarchical.gw[4].backbonemanetrouting 	OLSR_TC_Messages_(Forwarded) 	617
scalar hierarchical.gw[4].backbonemanetrouting 	OLSR_Total_HELLO 	515
scalar hierarchical.gw[4].backbonemanetrouting 	OLSR_Total_HNA_(originated) 	0
scalar hierarchical.gw[4].backbonemanetrouting 	OLSR_Total_TC 	45
scalar hierarchical.gw[4].backbonemanetrouting 	OLSR_Total_Messages_Sent 	1177
scalar hierarchical.gw[4].udp 	droppedPkBadChecksum:count 	0
attr interpolationmode  none
attr title  "packets dropped (checksum error), count"
scalar hierarchical.gw[4].udp 	droppedPkWrongPort:count 	0
attr interpolationmode  none
attr title  "packets dropped (wrong port), count"
scalar hierarchical.gw[4].udp 	passedUpPk:count 	726
attr interpolationmode  none
attr title  "packets passed up, count"
scalar hierarchical.gw[4].udp 	rcvdPk:count 	726
attr interpolationmode  none
attr source  rcvdPk
attr title  "packets received, count"
scalar hierarchical.gw[4].udp 	rcvdPk:sum(packetBytes) 	45891
attr interpolationmode  none
attr source  rcvdPk
attr title  "packets received, sum(packetBytes)"
scalar hierarchical.gw[4].udp 	sentPk:count 	729
attr interpolationmode  none
attr source  sentPk
attr title  "packets sent, count"
scalar hierarchical.gw[4].udp 	sentPk:sum(packetBytes) 	45840
attr interpolationmode  none
attr source  sentPk
attr title  "packets sent, sum(packetBytes)"
scalar hierarchical.gw[4].pingApp[0] 	numOutOfOrderArrivals:last 	-nan
attr interpolationmode  none
attr title  "ping out-of-order arrivals, last"
scalar hierarchical.gw[4].pingApp[0] 	pingRxSeq:count 	0
attr interpolationmode  none
attr title  "ping rx seq, count"
scalar hierarchical.gw[4].pingApp[0] 	pingTxSeq:count 	0
attr interpolationmode  none
attr title  "ping tx seq, count"
scalar hierarchical.gw[4].pingApp[0] 	numLost:last 	-nan
attr interpolationmode  none
attr title  "pings lost, last"
statistic hierarchical.gw[4].pingApp[0] 	rtt:histogram
field count 0
field mean -nan
field stddev -nan
field sum 0
field sqrsum 0
field min -nan
field max -nan
attr interpolationmode  none
attr title  "ping round-trip time, histogram"
attr unit  s
bin	-INF	0
bin	-0.5	0
bin	-0.46666666666667	0
bin	-0.43333333333333	0
bin	-0.4	0
bin	-0.36666666666667	0
bin	-0.33333333333333	0
bin	-0.3	0
bin	-0.26666666666667	0
bin	-0.23333333333333	0
bin	-0.2	0
bin	-0.16666666666667	0
bin	-0.13333333333333	0
bin	-0.1	0
bin	-0.066666666666667	0
bin	-0.033333333333333	0
bin	0	0
bin	0.033333333333333	0
bin	0.066666666666667	0
bin	0.1	0
bin	0.13333333333333	0
bin	0.16666666666667	0
bin	0.2	0
bin	0.23333333333333	0
bin	0.26666666666667	0
bin	0.3	0
bin	0.33333333333333	0
bin	0.36666666666667	0
bin	0.4	0
bin	0.43333333333333	0
bin	0.46666666666667	0
bin	0.5	0
scalar hierarchical.gw[4].pingTestApp[0] 	numOutOfOrderArrivals:last 	-nan
attr interpolationmode  none
attr title  "ping out-of-order arrivals, last"
scalar hierarchical.gw[4].pingTestApp[0] 	pingRxSeq:count 	0
attr interpolationmode  none
attr title  "ping rx seq, count"
scalar hierarchical.gw[4].pingTestApp[0] 	pingTxSeq:count 	0
attr interpolationmode  none
attr title  "ping tx seq, count"
scalar hierarchical.gw[4].pingTestApp[0] 	numLost:last 	-nan
attr interpolationmode  none
attr title  "pings lost, last"
statistic hierarchical.gw[4].pingTestApp[0] 	rtt:histogram
field count 0
field mean -nan
field stddev -nan
field sum 0
field sqrsum 0
field min -nan
field max -nan
attr interpolationmode  none
attr title  "ping round-trip time, histogram"
attr unit  s
bin	-INF	0
bin	-0.5	0
bin	-0.46666666666667	0
bin	-0.43333333333333	0
bin	-0.4	0
bin	-0.36666666666667	0
bin	-0.33333333333333	0
bin	-0.3	0
bin	-0.26666666666667	0
bin	-0.23333333333333	0
bin	-0.2	0
bin	-0.16666666666667	0
bin	-0.13333333333333	0
bin	-0.1	0
bin	-0.066666666666667	0
bin	-0.033333333333333	0
bin	0	0
bin	0.033333333333333	0
bin	0.066666666666667	0
bin	0.1	0
bin	0.13333333333333	0
bin	0.16666666666667	0
bin	0.2	0
bin	0.23333333333333	0
bin	0.26666666666667	0
bin	0.3	0
bin	0.33333333333333	0
bin	0.36666666666667	0
bin	0.4	0
bin	0.43333333333333	0
bin	0.46666666666667	0
bin	0.5	0
scalar hierarchical.gw[5].networkLayer.arp 	failedARPResolution:count 	0
attr title  "ARP failed resolutions, count"
scalar hierarchical.gw[5].networkLayer.arp 	completedARPResolution:count 	73
attr title  "ARP completed resolutions, count"
scalar hierarchical.gw[5].networkLayer.arp 	initiatedARPResolution:count 	8
attr title  "ARP initiated resolutions, count"
scalar hierarchical.gw[5].networkLayer.arp 	sentReply:count 	15
attr title  "ARP replies sent, count"
scalar hierarchical.gw[5].networkLayer.arp 	sentReq:count 	8
attr title  "ARP request sent, count"
scalar hierarchical.gw[5].lo0.lo 	droppedPkBitError:count 	0
attr interpolationmode  none
attr source  dropPkBitError
attr title  "packets dropped/bit error, count"
scalar hierarchical.gw[5].lo0.lo 	droppedPkBitError:sum(packetBytes) 	0
attr interpolationmode  none
attr source  dropPkBitError
attr title  "packets dropped/bit error, sum(packetBytes)"
scalar hierarchical.gw[5].lo0.lo 	rcvdPkFromHL:count 	2
attr interpolationmode  none
attr source  packetReceivedFromUpper
attr title  "packets received from higher layer, count"
scalar hierarchical.gw[5].lo0.lo 	rcvdPkFromHL:sum(packetBytes) 	112
attr interpolationmode  none
attr source  packetReceivedFromUpper
attr title  "packets received from higher layer, sum(packetBytes)"
scalar hierarchical.gw[5].lo0.lo 	passedUpPk:count 	2
attr interpolationmode  none
attr source  packetSentToUpper
attr title  "packets passed to higher layer, count"
scalar hierarchical.gw[5].lo0.lo 	passedUpPk:sum(packetBytes) 	112
attr interpolationmode  none
attr source  packetSentToUpper
attr title  "packets passed to higher layer, sum(packetBytes)"
scalar hierarchical.gw[5].wlan[0].mgmt 	dataQueueLen:max 	0
attr interpolationmode  sample-hold
attr title  "data queue length, max"
scalar hierarchical.gw[5].wlan[0].mgmt 	dataQueueLen:timeavg 	0
attr interpolationmode  sample-hold
attr title  "data queue length, timeavg"
scalar hierarchical.gw[5].wlan[0].mgmt 	dropPkByQueue:count 	0
attr interpolationmode  none
attr source  dropPkByQueue
attr title  "packets dropped by queue, count"
scalar hierarchical.gw[5].wlan[0].mgmt 	dropPkByQueue:sum(packetBytes) 	0
attr interpolationmode  none
attr source  dropPkByQueue
attr title  "packets dropped by queue, sum(packetBytes)"
scalar hierarchical.gw[5].wlan[0].mac 	"number of received packets" 	0
scalar hierarchical.gw[5].wlan[0].mac 	"number of collisions" 	0
scalar hierarchical.gw[5].wlan[0].mac 	"number of internal collisions" 	0
scalar hierarchical.gw[5].wlan[0].mac 	"number of retry for AC 0" 	0
scalar hierarchical.gw[5].wlan[0].mac 	"sent and received bits" 	579616
scalar hierarchical.gw[5].wlan[0].mac 	"sent packet within AC 0" 	0
scalar hierarchical.gw[5].wlan[0].mac 	"sent in TXOP " 	0
scalar hierarchical.gw[5].wlan[0].mac 	"sentWithoutRetry AC 0" 	0
scalar hierarchical.gw[5].wlan[0].mac 	"numGivenUp AC 0" 	0
scalar hierarchical.gw[5].wlan[0].mac 	"numDropped AC 0" 	0
scalar hierarchical.gw[5].wlan[0].mac 	rcvdPkFromHL:count 	776
attr interpolationmode  none
attr source  packetReceivedFromUpper
attr title  "packets received from higher layer, count"
scalar hierarchical.gw[5].wlan[0].mac 	rcvdPkFromHL:sum(packetBytes) 	72452
attr interpolationmode  none
attr source  packetReceivedFromUpper
attr title  "packets received from higher layer, sum(packetBytes)"
scalar hierarchical.gw[5].wlan[0].mac 	passedUpPk:count 	0
attr interpolationmode  none
attr source  packetSentToUpper
attr title  "packets passed to higher layer, count"
scalar hierarchical.gw[5].wlan[0].mac 	passedUpPk:sum(packetBytes) 	0
attr interpolationmode  none
attr source  packetSentToUpper
attr title  "packets passed to higher layer, sum(packetBytes)"
scalar hierarchical.gw[5].wlan[0].mac 	rcvdPkFromLL:count 	0
attr interpolationmode  none
attr source  packetReceivedFromLower
attr title  "packets received from lower layer, count"
scalar hierarchical.gw[5].wlan[0].mac 	rcvdPkFromLL:sum(packetBytes) 	0
attr interpolationmode  none
attr source  packetReceivedFromLower
attr title  "packets received from lower layer, sum(packetBytes)"
scalar hierarchical.gw[5].wlan[0].mac 	sentDownPk:count 	776
attr interpolationmode  none
attr source  packetSentToLower
attr title  "packets sent to lower layer, count"
scalar hierarchical.gw[5].wlan[0].mac 	sentDownPk:sum(packetBytes) 	72452
attr interpolationmode  none
attr source  packetSentToLower
attr title  "packets sent to lower layer, sum(packetBytes)"
scalar hierarchical.gw[5].wlan[0].radio 	lossRate:min 	-nan
attr interpolationmode  backward-sample-hold
attr title  "packet loss rate, min"
scalar hierarchical.gw[5].wlan[0].radio 	lossRate:max 	-nan
attr interpolationmode  backward-sample-hold
attr title  "packet loss rate, max"
scalar hierarchical.gw[5].wlan[0].radio 	lossRate:timeavg 	-nan
attr interpolationmode  backward-sample-hold
attr title  "packet loss rate, timeavg"
statistic hierarchical.gw[5].wlan[0].radio 	channelNo:histogram
field count 1
field mean 5
field stddev -nan
field sum 5
field sqrsum 25
field min 5
field max 5
attr interpolationmode  sample-hold
attr title  "channel no, histogram"
bin	-INF	0
bin	4	0
bin	5	1
bin	6	0
scalar hierarchical.gw[5].wlan[0].radio 	bitrate:min 	11000000
attr interpolationmode  sample-hold
attr title  "tx bitrate, min"
attr unit  bps
scalar hierarchical.gw[5].wlan[0].radio 	bitrate:max 	11000000
attr interpolationmode  sample-hold
attr title  "tx bitrate, max"
attr unit  bps
scalar hierarchical.gw[5].wlan[0].radio 	bitrate:timeavg 	11000000
attr interpolationmode  sample-hold
attr title  "tx bitrate, timeavg"
attr unit  bps
scalar hierarchical.gw[5].wlan[0].radio 	radioState:count 	1553
attr interpolationmode  sample-hold
attr title  "radio state (enum), count"
scalar hierarchical.gw[5].wlan[1].mgmt 	dataQueueLen:max 	2
attr interpolationmode  sample-hold
attr title  "data queue length, max"
scalar hierarchical.gw[5].wlan[1].mgmt 	dataQueueLen:timeavg 	7.4448346666667e-05
attr interpolationmode  sample-hold
attr title  "data queue length, timeavg"
scalar hierarchical.gw[5].wlan[1].mgmt 	dropPkByQueue:count 	0
attr interpolationmode  none
attr source  dropPkByQueue
attr title  "packets dropped by queue, count"
scalar hierarchical.gw[5].wlan[1].mgmt 	dropPkByQueue:sum(packetBytes) 	0
attr interpolationmode  none
attr source  dropPkByQueue
attr title  "packets dropped by queue, sum(packetBytes)"
[...]
attr interpolationmode  none
attr source  packetReceivedFromUpper
attr title  "packets received from higher layer, count"
scalar hierarchical.host[39].lo0.lo 	rcvdPkFromHL:sum(packetBytes) 	0
attr interpolationmode  none
attr source  packetReceivedFromUpper
attr title  "packets received from higher layer, sum(packetBytes)"
scalar hierarchical.host[39].lo0.lo 	passedUpPk:count 	0
attr interpolationmode  none
attr source  packetSentToUpper
attr title  "packets passed to higher layer, count"
scalar hierarchical.host[39].lo0.lo 	passedUpPk:sum(packetBytes) 	0
attr interpolationmode  none
attr source  packetSentToUpper
attr title  "packets passed to higher layer, sum(packetBytes)"
scalar hierarchical.host[39].wlan[0].mgmt 	dataQueueLen:max 	2
attr interpolationmode  sample-hold
attr title  "data queue length, max"
scalar hierarchical.host[39].wlan[0].mgmt 	dataQueueLen:timeavg 	2.8204121111111e-05
attr interpolationmode  sample-hold
attr title  "data queue length, timeavg"
scalar hierarchical.host[39].wlan[0].mgmt 	dropPkByQueue:count 	0
attr interpolationmode  none
attr source  dropPkByQueue
attr title  "packets dropped by queue, count"
scalar hierarchical.host[39].wlan[0].mgmt 	dropPkByQueue:sum(packetBytes) 	0
attr interpolationmode  none
attr source  dropPkByQueue
attr title  "packets dropped by queue, sum(packetBytes)"
scalar hierarchical.host[39].wlan[0].mac 	"number of received packets" 	5534
scalar hierarchical.host[39].wlan[0].mac 	"number of collisions" 	785
scalar hierarchical.host[39].wlan[0].mac 	"number of internal collisions" 	0
scalar hierarchical.host[39].wlan[0].mac 	"number of retry for AC 0" 	602
scalar hierarchical.host[39].wlan[0].mac 	"sent and received bits" 	9092736
scalar hierarchical.host[39].wlan[0].mac 	"sent packet within AC 0" 	5572
scalar hierarchical.host[39].wlan[0].mac 	"sent in TXOP " 	0
scalar hierarchical.host[39].wlan[0].mac 	"sentWithoutRetry AC 0" 	5472
scalar hierarchical.host[39].wlan[0].mac 	"numGivenUp AC 0" 	55
scalar hierarchical.host[39].wlan[0].mac 	"numDropped AC 0" 	0
scalar hierarchical.host[39].wlan[0].mac 	rcvdPkFromHL:count 	6275
attr interpolationmode  none
attr source  packetReceivedFromUpper
attr title  "packets received from higher layer, count"
scalar hierarchical.host[39].wlan[0].mac 	rcvdPkFromHL:sum(packetBytes) 	1147042
attr interpolationmode  none
attr source  packetReceivedFromUpper
attr title  "packets received from higher layer, sum(packetBytes)"
scalar hierarchical.host[39].wlan[0].mac 	passedUpPk:count 	11969
attr interpolationmode  none
attr source  packetSentToUpper
attr title  "packets passed to higher layer, count"
scalar hierarchical.host[39].wlan[0].mac 	passedUpPk:sum(packetBytes) 	1828918
attr interpolationmode  none
attr source  packetSentToUpper
attr title  "packets passed to higher layer, sum(packetBytes)"
scalar hierarchical.host[39].wlan[0].mac 	rcvdPkFromLL:count 	149001
attr interpolationmode  none
attr source  packetReceivedFromLower
attr title  "packets received from lower layer, count"
scalar hierarchical.host[39].wlan[0].mac 	rcvdPkFromLL:sum(packetBytes) 	15628302
attr interpolationmode  none
attr source  packetReceivedFromLower
attr title  "packets received from lower layer, sum(packetBytes)"
scalar hierarchical.host[39].wlan[0].mac 	sentDownPk:count 	12411
attr interpolationmode  none
attr source  packetSentToLower
attr title  "packets sent to lower layer, count"
scalar hierarchical.host[39].wlan[0].mac 	sentDownPk:sum(packetBytes) 	1338778
attr interpolationmode  none
attr source  packetSentToLower
attr title  "packets sent to lower layer, sum(packetBytes)"
scalar hierarchical.host[39].wlan[0].radio 	lossRate:min 	0
attr interpolationmode  backward-sample-hold
attr title  "packet loss rate, min"
scalar hierarchical.host[39].wlan[0].radio 	lossRate:max 	0.2
attr interpolationmode  backward-sample-hold
attr title  "packet loss rate, max"
scalar hierarchical.host[39].wlan[0].radio 	lossRate:timeavg 	0.0046310273360731
attr interpolationmode  backward-sample-hold
attr title  "packet loss rate, timeavg"
statistic hierarchical.host[39].wlan[0].radio 	channelNo:histogram
field count 1
field mean 3
field stddev -nan
field sum 3
field sqrsum 9
field min 3
field max 3
attr interpolationmode  sample-hold
attr title  "channel no, histogram"
bin	-INF	0
bin	2	0
bin	3	1
bin	4	0
scalar hierarchical.host[39].wlan[0].radio 	bitrate:min 	11000000
attr interpolationmode  sample-hold
attr title  "tx bitrate, min"
attr unit  bps
scalar hierarchical.host[39].wlan[0].radio 	bitrate:max 	11000000
attr interpolationmode  sample-hold
attr title  "tx bitrate, max"
attr unit  bps
scalar hierarchical.host[39].wlan[0].radio 	bitrate:timeavg 	11000000
attr interpolationmode  sample-hold
attr title  "tx bitrate, timeavg"
attr unit  bps
scalar hierarchical.host[39].wlan[0].radio 	radioState:count 	323001
attr interpolationmode  sample-hold
attr title  "radio state (enum), count"
scalar hierarchical.host[39].pingApp[0] 	numOutOfOrderArrivals:last 	-nan
attr interpolationmode  none
attr title  "ping out-of-order arrivals, last"
scalar hierarchical.host[39].pingApp[0] 	pingRxSeq:count 	0
attr interpolationmode  none
attr title  "ping rx seq, count"
scalar hierarchical.host[39].pingApp[0] 	pingTxSeq:count 	0
attr interpolationmode  none
attr title  "ping tx seq, count"
scalar hierarchical.host[39].pingApp[0] 	numLost:last 	-nan
attr interpolationmode  none
attr title  "pings lost, last"
statistic hierarchical.host[39].pingApp[0] 	rtt:histogram
field count 0
field mean -nan
field stddev -nan
field sum 0
field sqrsum 0
field min -nan
field max -nan
attr interpolationmode  none
attr title  "ping round-trip time, histogram"
attr unit  s
bin	-INF	0
bin	-0.5	0
bin	-0.46666666666667	0
bin	-0.43333333333333	0
bin	-0.4	0
bin	-0.36666666666667	0
bin	-0.33333333333333	0
bin	-0.3	0
bin	-0.26666666666667	0
bin	-0.23333333333333	0
bin	-0.2	0
bin	-0.16666666666667	0
bin	-0.13333333333333	0
bin	-0.1	0
bin	-0.066666666666667	0
bin	-0.033333333333333	0
bin	0	0
bin	0.033333333333333	0
bin	0.066666666666667	0
bin	0.1	0
bin	0.13333333333333	0
bin	0.16666666666667	0
bin	0.2	0
bin	0.23333333333333	0
bin	0.26666666666667	0
bin	0.3	0
bin	0.33333333333333	0
bin	0.36666666666667	0
bin	0.4	0
bin	0.43333333333333	0
bin	0.46666666666667	0
bin	0.5	0
scalar hierarchical.host[39].pingTestApp[0] 	"Pings sent" 	2299
scalar hierarchical.host[39].pingTestApp[0] 	"ping loss rate (%)" 	3.9582427142236
scalar hierarchical.host[39].pingTestApp[0] 	"ping out-of-order rate (%)" 	0
scalar hierarchical.host[39].pingTestApp[0] 	numOutOfOrderArrivals:last 	-nan
attr interpolationmode  none
attr title  "ping out-of-order arrivals, last"
scalar hierarchical.host[39].pingTestApp[0] 	pingRxSeq:count 	2208
attr interpolationmode  none
attr title  "ping rx seq, count"
scalar hierarchical.host[39].pingTestApp[0] 	pingTxSeq:count 	2299
attr interpolationmode  none
attr title  "ping tx seq, count"
scalar hierarchical.host[39].pingTestApp[0] 	numLost:last 	91
attr interpolationmode  none
attr title  "pings lost, last"
statistic hierarchical.host[39].pingTestApp[0] 	rtt:histogram
field count 2208
field mean 0.0041668903609601
field stddev 0.0022926771009746
field sum 9.200493917
field sqrsum 0.049938254233379
field min 0.002584247
field max 0.038112282
attr interpolationmode  none
attr title  "ping round-trip time, histogram"
attr unit  s
bin	-INF	0
bin	-0.005121339	0
bin	-0.0040876279333333	0
bin	-0.0030539168666667	0
bin	-0.0020202058	0
bin	-0.00098649473333333	0
bin	4.7216333333334e-05	0
bin	0.0010809274	0
bin	0.0021146384666667	821
bin	0.0031483495333333	712
bin	0.0041820606	267
bin	0.0052157716666667	231
bin	0.0062494827333333	73
bin	0.0072831938	30
bin	0.0083169048666667	16
bin	0.0093506159333333	10
bin	0.010384327	9
bin	0.011418038066667	8
bin	0.012451749133333	4
bin	0.0134854602	6
bin	0.014519171266667	6
bin	0.015552882333333	3
bin	0.0165865934	1
bin	0.017620304466667	4
bin	0.018654015533333	0
bin	0.0196877266	0
bin	0.020721437666667	2
bin	0.021755148733333	1
bin	0.0227888598	0
bin	0.023822570866667	1
bin	0.024856281933333	1
bin	0.025889993	2
scalar hierarchical.host[39].manetrouting 	OLSR_HNA_Messages_(Forwarded) 	186
scalar hierarchical.host[39].manetrouting 	OLSR_TC_Messages_(Forwarded) 	488
scalar hierarchical.host[39].manetrouting 	OLSR_Total_HELLO 	513
scalar hierarchical.host[39].manetrouting 	OLSR_Total_HNA_(originated) 	0
scalar hierarchical.host[39].manetrouting 	OLSR_Total_TC 	0
scalar hierarchical.host[39].manetrouting 	OLSR_Total_Messages_Sent 	1187
scalar hierarchical.globalObserver.globalStatistics 	"GlobalStatistics: Simulation Time" 	900
scalar hierarchical.globalObserver.globalStatistics 	"BaseApp (bootstrapList): Received Bytes/s from Overlay.mean" 	0
scalar hierarchical.globalObserver.globalStatistics 	"BaseApp (bootstrapList): Received Bytes/s from UDP.mean" 	0
scalar hierarchical.globalObserver.globalStatistics 	"BaseApp (bootstrapList): Received Messages/s from Overlay.mean" 	0
scalar hierarchical.globalObserver.globalStatistics 	"BaseApp (bootstrapList): Received Messages/s from UDP.mean" 	0
scalar hierarchical.globalObserver.globalStatistics 	"BaseApp (bootstrapList): Sent Bytes/s to Overlay.mean" 	0
scalar hierarchical.globalObserver.globalStatistics 	"BaseApp (bootstrapList): Sent Bytes/s to UDP.mean" 	0
scalar hierarchical.globalObserver.globalStatistics 	"BaseApp (bootstrapList): Sent Messages/s to Overlay.mean" 	0
scalar hierarchical.globalObserver.globalStatistics 	"BaseApp (bootstrapList): Sent Messages/s to UDP.mean" 	0
scalar hierarchical.globalObserver.globalStatistics 	"BaseApp (dht): Received Bytes/s from Overlay.mean" 	13.56671875
scalar hierarchical.globalObserver.globalStatistics 	"BaseApp (dht): Received Bytes/s from UDP.mean" 	0
scalar hierarchical.globalObserver.globalStatistics 	"BaseApp (dht): Received Messages/s from Overlay.mean" 	0.20796875
scalar hierarchical.globalObserver.globalStatistics 	"BaseApp (dht): Received Messages/s from UDP.mean" 	0
scalar hierarchical.globalObserver.globalStatistics 	"BaseApp (dht): Sent Bytes/s to Overlay.mean" 	14.89
scalar hierarchical.globalObserver.globalStatistics 	"BaseApp (dht): Sent Bytes/s to UDP.mean" 	0
scalar hierarchical.globalObserver.globalStatistics 	"BaseApp (dht): Sent Messages/s to Overlay.mean" 	0.2278125
scalar hierarchical.globalObserver.globalStatistics 	"BaseApp (dht): Sent Messages/s to UDP.mean" 	0
scalar hierarchical.globalObserver.globalStatistics 	"BaseApp (dht4routing): Received Bytes/s from Overlay.mean" 	0
scalar hierarchical.globalObserver.globalStatistics 	"BaseApp (dht4routing): Received Bytes/s from UDP.mean" 	0
scalar hierarchical.globalObserver.globalStatistics 	"BaseApp (dht4routing): Received Messages/s from Overlay.mean" 	0
scalar hierarchical.globalObserver.globalStatistics 	"BaseApp (dht4routing): Received Messages/s from UDP.mean" 	0
scalar hierarchical.globalObserver.globalStatistics 	"BaseApp (dht4routing): Sent Bytes/s to Overlay.mean" 	0
scalar hierarchical.globalObserver.globalStatistics 	"BaseApp (dht4routing): Sent Bytes/s to UDP.mean" 	0
scalar hierarchical.globalObserver.globalStatistics 	"BaseApp (dht4routing): Sent Messages/s to Overlay.mean" 	0
scalar hierarchical.globalObserver.globalStatistics 	"BaseApp (dht4routing): Sent Messages/s to UDP.mean" 	0
scalar hierarchical.globalObserver.globalStatistics 	"BaseApp (neighborCache): Received Bytes/s from Overlay.mean" 	0
scalar hierarchical.globalObserver.globalStatistics 	"BaseApp (neighborCache): Received Bytes/s from UDP.mean" 	0
scalar hierarchical.globalObserver.globalStatistics 	"BaseApp (neighborCache): Received Messages/s from Overlay.mean" 	0
scalar hierarchical.globalObserver.globalStatistics 	"BaseApp (neighborCache): Received Messages/s from UDP.mean" 	0
scalar hierarchical.globalObserver.globalStatistics 	"BaseApp (neighborCache): Sent Bytes/s to Overlay.mean" 	0
scalar hierarchical.globalObserver.globalStatistics 	"BaseApp (neighborCache): Sent Bytes/s to UDP.mean" 	0
scalar hierarchical.globalObserver.globalStatistics 	"BaseApp (neighborCache): Sent Messages/s to Overlay.mean" 	0
scalar hierarchical.globalObserver.globalStatistics 	"BaseApp (neighborCache): Sent Messages/s to UDP.mean" 	0
scalar hierarchical.globalObserver.globalStatistics 	"BaseApp (tier3): Received Bytes/s from Overlay.mean" 	0
scalar hierarchical.globalObserver.globalStatistics 	"BaseApp (tier3): Received Bytes/s from UDP.mean" 	0
scalar hierarchical.globalObserver.globalStatistics 	"BaseApp (tier3): Received Messages/s from Overlay.mean" 	0
scalar hierarchical.globalObserver.globalStatistics 	"BaseApp (tier3): Received Messages/s from UDP.mean" 	0
scalar hierarchical.globalObserver.globalStatistics 	"BaseApp (tier3): Sent Bytes/s to Overlay.mean" 	0
scalar hierarchical.globalObserver.globalStatistics 	"BaseApp (tier3): Sent Bytes/s to UDP.mean" 	0
scalar hierarchical.globalObserver.globalStatistics 	"BaseApp (tier3): Sent Messages/s to Overlay.mean" 	0
scalar hierarchical.globalObserver.globalStatistics 	"BaseApp (tier3): Sent Messages/s to UDP.mean" 	0
scalar hierarchical.globalObserver.globalStatistics 	"BaseOverlay: Dropped Bytes/s.mean" 	0.6046875
scalar hierarchical.globalObserver.globalStatistics 	"BaseOverlay: Dropped Messages/s.mean" 	0.00703125
scalar hierarchical.globalObserver.globalStatistics 	"BaseOverlay: Forwarded App Data Bytes/s.mean" 	0
scalar hierarchical.globalObserver.globalStatistics 	"BaseOverlay: Forwarded App Data Messages/s.mean" 	0
scalar hierarchical.globalObserver.globalStatistics 	"BaseOverlay: Forwarded App Lookup Bytes/s.mean" 	0
scalar hierarchical.globalObserver.globalStatistics 	"BaseOverlay: Forwarded App Lookup Messages/s.mean" 	0
scalar hierarchical.globalObserver.globalStatistics 	"BaseOverlay: Forwarded Maintenance Bytes/s.mean" 	0
scalar hierarchical.globalObserver.globalStatistics 	"BaseOverlay: Forwarded Maintenance Messages/s.mean" 	0
scalar hierarchical.globalObserver.globalStatistics 	"BaseOverlay: Forwarded Total Bytes/s.mean" 	0
scalar hierarchical.globalObserver.globalStatistics 	"BaseOverlay: Forwarded Total Messages/s.mean" 	0
scalar hierarchical.globalObserver.globalStatistics 	"BaseOverlay: Join Retries.mean" 	1
scalar hierarchical.globalObserver.globalStatistics 	"BaseOverlay: Measured Session Time.mean" 	900
scalar hierarchical.globalObserver.globalStatistics 	"BaseOverlay: Received App Data Bytes/s.mean" 	13.563125
scalar hierarchical.globalObserver.globalStatistics 	"BaseOverlay: Received App Data Messages/s.mean" 	0.195
scalar hierarchical.globalObserver.globalStatistics 	"BaseOverlay: Received App Lookup Bytes/s.mean" 	5.78359375
scalar hierarchical.globalObserver.globalStatistics 	"BaseOverlay: Received App Lookup Messages/s.mean" 	0.07453125
scalar hierarchical.globalObserver.globalStatistics 	"BaseOverlay: Received Maintenance Bytes/s.mean" 	39.5884375
scalar hierarchical.globalObserver.globalStatistics 	"BaseOverlay: Received Maintenance Messages/s.mean" 	0.72890625
scalar hierarchical.globalObserver.globalStatistics 	"BaseOverlay: Received Total Bytes/s.mean" 	58.93515625
scalar hierarchical.globalObserver.globalStatistics 	"BaseOverlay: Received Total Messages/s.mean" 	0.9984375
scalar hierarchical.globalObserver.globalStatistics 	"BaseOverlay: Sent App Data Bytes/s.mean" 	14.30515625
scalar hierarchical.globalObserver.globalStatistics 	"BaseOverlay: Sent App Data Messages/s.mean" 	0.201875
scalar hierarchical.globalObserver.globalStatistics 	"BaseOverlay: Sent App Lookup Bytes/s.mean" 	5.81
scalar hierarchical.globalObserver.globalStatistics 	"BaseOverlay: Sent App Lookup Messages/s.mean" 	0.075
scalar hierarchical.globalObserver.globalStatistics 	"BaseOverlay: Sent FailedNode Bytes/s.mean" 	0
scalar hierarchical.globalObserver.globalStatistics 	"BaseOverlay: Sent FailedNode Messages/s.mean" 	0
scalar hierarchical.globalObserver.globalStatistics 	"BaseOverlay: Sent FailedNodeResponse Bytes/s.mean" 	0
scalar hierarchical.globalObserver.globalStatistics 	"BaseOverlay: Sent FailedNodeResponse Messages/s.mean" 	0
scalar hierarchical.globalObserver.globalStatistics 	"BaseOverlay: Sent FindNode Bytes/s.mean" 	4.82109375
scalar hierarchical.globalObserver.globalStatistics 	"BaseOverlay: Sent FindNode Messages/s.mean" 	0.08765625
scalar hierarchical.globalObserver.globalStatistics 	"BaseOverlay: Sent FindNodeResponse Bytes/s.mean" 	6.2925
scalar hierarchical.globalObserver.globalStatistics 	"BaseOverlay: Sent FindNodeResponse Messages/s.mean" 	0.080625
scalar hierarchical.globalObserver.globalStatistics 	"BaseOverlay: Sent Maintenance Bytes/s.mean" 	40.03046875
scalar hierarchical.globalObserver.globalStatistics 	"BaseOverlay: Sent Maintenance Messages/s.mean" 	0.7375
scalar hierarchical.globalObserver.globalStatistics 	"BaseOverlay: Sent Ping Bytes/s.mean" 	6.4
scalar hierarchical.globalObserver.globalStatistics 	"BaseOverlay: Sent Ping Messages/s.mean" 	0.2
scalar hierarchical.globalObserver.globalStatistics 	"BaseOverlay: Sent Ping Response Bytes/s.mean" 	6.395
scalar hierarchical.globalObserver.globalStatistics 	"BaseOverlay: Sent Ping Response Messages/s.mean" 	0.19984375
scalar hierarchical.globalObserver.globalStatistics 	"BaseOverlay: Sent Total Bytes/s.mean" 	60.145625
scalar hierarchical.globalObserver.globalStatistics 	"BaseOverlay: Sent Total Messages/s.mean" 	1.014375
scalar hierarchical.globalObserver.globalStatistics 	"Chord: Sent FIX_FINGERS Bytes/s.mean" 	3.681875
scalar hierarchical.globalObserver.globalStatistics 	"Chord: Sent FIX_FINGERS Messages/s.mean" 	0.0428125
scalar hierarchical.globalObserver.globalStatistics 	"Chord: Sent JOIN Bytes/s.mean" 	0
scalar hierarchical.globalObserver.globalStatistics 	"Chord: Sent JOIN Messages/s.mean" 	0
scalar hierarchical.globalObserver.globalStatistics 	"Chord: Sent NEWSUCCESSORHINT Bytes/s.mean" 	0
scalar hierarchical.globalObserver.globalStatistics 	"Chord: Sent NEWSUCCESSORHINT Messages/s.mean" 	0
scalar hierarchical.globalObserver.globalStatistics 	"Chord: Sent NOTIFY Bytes/s.mean" 	13.6959375
scalar hierarchical.globalObserver.globalStatistics 	"Chord: Sent NOTIFY Messages/s.mean" 	0.1
scalar hierarchical.globalObserver.globalStatistics 	"Chord: Sent STABILIZE Bytes/s.mean" 	4.5540625
scalar hierarchical.globalObserver.globalStatistics 	"Chord: Sent STABILIZE Messages/s.mean" 	0.1015625
scalar hierarchical.globalObserver.globalStatistics 	"DHT4Routing: Failed GET Requests/s.mean" 	0
scalar hierarchical.globalObserver.globalStatistics 	"DHT4Routing: Failed PUT Requests/s.mean" 	0
scalar hierarchical.globalObserver.globalStatistics 	"DHT4Routing: GET Latency (s).mean" 	0.065511698418182
scalar hierarchical.globalObserver.globalStatistics 	"DHT4Routing: GET Success Ratio.mean" 	1
scalar hierarchical.globalObserver.globalStatistics 	"DHT4Routing: PUT Latency (s).mean" 	0.01082605995
scalar hierarchical.globalObserver.globalStatistics 	"DHT4Routing: Sent GET Messages/s.mean" 	0.0171875
scalar hierarchical.globalObserver.globalStatistics 	"DHT4Routing: Sent PUT Messages/s.mean" 	0.00625
scalar hierarchical.globalObserver.globalStatistics 	"DHT4Routing: Sent Total Messages/s.mean" 	0.0234375
scalar hierarchical.globalObserver.globalStatistics 	"DHT4Routing: Successful GET Requests/s.mean" 	0.0109375
scalar hierarchical.globalObserver.globalStatistics 	"DHT4Routing: Successful PUT Requests/s.mean" 	0.00625
scalar hierarchical.globalObserver.globalStatistics 	"DHT: Sent Maintenance Bytes/s.mean" 	0.66421875
scalar hierarchical.globalObserver.globalStatistics 	"DHT: Sent Maintenance Messages/s.mean" 	0.00609375
scalar hierarchical.globalObserver.globalStatistics 	"DHT: Sent Normal Bytes/s.mean" 	14.22578125
scalar hierarchical.globalObserver.globalStatistics 	"DHT: Sent Normal Messages/s.mean" 	0.22171875
scalar hierarchical.globalObserver.globalStatistics 	"Vector: GlobalDhtTestMap: Number of stored DHT entries.mean" 	39.4
scalar hierarchical.globalObserver.globalStatistics 	"Vector: GlobalNodeList: Number of nodes.mean" 	8
