version 2
run MergeSplit-0-20190328-08:17:09-2164
attr configname MergeSplit
attr datetime 20190328-08:17:09
attr experiment MergeSplit
attr inifile DHT-based_mobile_scenarios.ini
attr iterationvars ""
attr iterationvars2 $repetition=0
attr measurement ""
attr network p2psipmanet.simulations.hierarchical
attr processid 2164
attr repetition 0
attr replication #0
attr resultdir results
attr runnumber 0
attr seedset 277735

scalar hierarchical.gw[0].networkLayer.arp 	failedARPResolution:count 	1
attr title  "ARP failed resolutions, count"
scalar hierarchical.gw[0].networkLayer.arp 	completedARPResolution:count 	512
attr title  "ARP completed resolutions, count"
scalar hierarchical.gw[0].networkLayer.arp 	initiatedARPResolution:count 	36
attr title  "ARP initiated resolutions, count"
scalar hierarchical.gw[0].networkLayer.arp 	sentReply:count 	59
attr title  "ARP replies sent, count"
scalar hierarchical.gw[0].networkLayer.arp 	sentReq:count 	40
attr title  "ARP request sent, count"
scalar hierarchical.gw[0].lo0.lo 	droppedPkBitError:count 	0
attr interpolationmode  none
attr source  dropPkBitError
attr title  "packets dropped/bit error, count"
scalar hierarchical.gw[0].lo0.lo 	droppedPkBitError:sum(packetBytes) 	0
attr interpolationmode  none
attr source  dropPkBitError
attr title  "packets dropped/bit error, sum(packetBytes)"
scalar hierarchical.gw[0].lo0.lo 	rcvdPkFromHL:count 	418
attr interpolationmode  none
attr source  packetReceivedFromUpper
attr title  "packets received from higher layer, count"
scalar hierarchical.gw[0].lo0.lo 	rcvdPkFromHL:sum(packetBytes) 	26015
attr interpolationmode  none
attr source  packetReceivedFromUpper
attr title  "packets received from higher layer, sum(packetBytes)"
scalar hierarchical.gw[0].lo0.lo 	passedUpPk:count 	418
attr interpolationmode  none
attr source  packetSentToUpper
attr title  "packets passed to higher layer, count"
scalar hierarchical.gw[0].lo0.lo 	passedUpPk:sum(packetBytes) 	26015
attr interpolationmode  none
attr source  packetSentToUpper
attr title  "packets passed to higher layer, sum(packetBytes)"
scalar hierarchical.gw[0].wlan[0].mgmt 	dataQueueLen:max 	10
attr interpolationmode  sample-hold
attr title  "data queue length, max"
scalar hierarchical.gw[0].wlan[0].mgmt 	dataQueueLen:timeavg 	0.031375391431111
attr interpolationmode  sample-hold
attr title  "data queue length, timeavg"
scalar hierarchical.gw[0].wlan[0].mgmt 	dropPkByQueue:count 	3
attr interpolationmode  none
attr source  dropPkByQueue
attr title  "packets dropped by queue, count"
scalar hierarchical.gw[0].wlan[0].mgmt 	dropPkByQueue:sum(packetBytes) 	570
attr interpolationmode  none
attr source  dropPkByQueue
attr title  "packets dropped by queue, sum(packetBytes)"
scalar hierarchical.gw[0].wlan[0].mac 	"number of received packets" 	37990
scalar hierarchical.gw[0].wlan[0].mac 	"number of collisions" 	90410
scalar hierarchical.gw[0].wlan[0].mac 	"number of internal collisions" 	0
scalar hierarchical.gw[0].wlan[0].mac 	"number of retry for AC 0" 	15886
scalar hierarchical.gw[0].wlan[0].mac 	"sent and received bits" 	55334544
scalar hierarchical.gw[0].wlan[0].mac 	"sent packet within AC 0" 	33905
scalar hierarchical.gw[0].wlan[0].mac 	"sent in TXOP " 	0
scalar hierarchical.gw[0].wlan[0].mac 	"sentWithoutRetry AC 0" 	27595
scalar hierarchical.gw[0].wlan[0].mac 	"numGivenUp AC 0" 	281
scalar hierarchical.gw[0].wlan[0].mac 	"numDropped AC 0" 	0
scalar hierarchical.gw[0].wlan[0].mac 	rcvdPkFromHL:count 	37799
attr interpolationmode  none
attr source  packetReceivedFromUpper
attr title  "packets received from higher layer, count"
scalar hierarchical.gw[0].wlan[0].mac 	rcvdPkFromHL:sum(packetBytes) 	6970398
attr interpolationmode  none
attr source  packetReceivedFromUpper
attr title  "packets received from higher layer, sum(packetBytes)"
scalar hierarchical.gw[0].wlan[0].mac 	passedUpPk:count 	59350
attr interpolationmode  none
attr source  packetSentToUpper
attr title  "packets passed to higher layer, count"
scalar hierarchical.gw[0].wlan[0].mac 	passedUpPk:sum(packetBytes) 	9981584
attr interpolationmode  none
attr source  packetSentToUpper
attr title  "packets passed to higher layer, sum(packetBytes)"
scalar hierarchical.gw[0].wlan[0].mac 	rcvdPkFromLL:count 	566777
attr interpolationmode  none
attr source  packetReceivedFromLower
attr title  "packets received from lower layer, count"
scalar hierarchical.gw[0].wlan[0].mac 	rcvdPkFromLL:sum(packetBytes) 	65079694
attr interpolationmode  none
attr source  packetReceivedFromLower
attr title  "packets received from lower layer, sum(packetBytes)"
scalar hierarchical.gw[0].wlan[0].mac 	sentDownPk:count 	91675
attr interpolationmode  none
attr source  packetSentToLower
attr title  "packets sent to lower layer, count"
scalar hierarchical.gw[0].wlan[0].mac 	sentDownPk:sum(packetBytes) 	10520358
attr interpolationmode  none
attr source  packetSentToLower
attr title  "packets sent to lower layer, sum(packetBytes)"
scalar hierarchical.gw[0].wlan[0].radio 	lossRate:min 	0
attr interpolationmode  backward-sample-hold
attr title  "packet loss rate, min"
scalar hierarchical.gw[0].wlan[0].radio 	lossRate:max 	0.64
attr interpolationmode  backward-sample-hold
attr title  "packet loss rate, max"
scalar hierarchical.gw[0].wlan[0].radio 	lossRate:timeavg 	0.12468275307643
attr interpolationmode  backward-sample-hold
attr title  "packet loss rate, timeavg"
statistic hierarchical.gw[0].wlan[0].radio 	channelNo:histogram
field count 1
field mean 0
field stddev -nan
field sum 0
field sqrsum 0
field min 0
field max 0
attr interpolationmode  sample-hold
attr title  "channel no, histogram"
bin	-INF	0
bin	-0.5	0
bin	-0.46666666666667	0
bin	-0.43333333333333	0
bin	-0.4	0
bin	-0.36666666666667	0
bin	-0.33333333333333	0
bin	-0.3	0
bin	-0.26666666666667	0
bin	-0.23333333333333	0
bin	-0.2	0
bin	-0.16666666666667	0
bin	-0.13333333333333	0
bin	-0.1	0
bin	-0.066666666666667	0
bin	-0.033333333333333	0
bin	0	1
bin	0.033333333333333	0
bin	0.066666666666667	0
bin	0.1	0
bin	0.13333333333333	0
bin	0.16666666666667	0
bin	0.2	0
bin	0.23333333333333	0
bin	0.26666666666667	0
bin	0.3	0
bin	0.33333333333333	0
bin	0.36666666666667	0
bin	0.4	0
bin	0.43333333333333	0
bin	0.46666666666667	0
bin	0.5	0
scalar hierarchical.gw[0].wlan[0].radio 	bitrate:min 	11000000
attr interpolationmode  sample-hold
attr title  "tx bitrate, min"
attr unit  bps
scalar hierarchical.gw[0].wlan[0].radio 	bitrate:max 	11000000
attr interpolationmode  sample-hold
attr title  "tx bitrate, max"
attr unit  bps
scalar hierarchical.gw[0].wlan[0].radio 	bitrate:timeavg 	11000000
attr interpolationmode  sample-hold
attr title  "tx bitrate, timeavg"
attr unit  bps
scalar hierarchical.gw[0].wlan[0].radio 	radioState:count 	1301358
attr interpolationmode  sample-hold
attr title  "radio state (enum), count"
scalar hierarchical.gw[0].wlan[1].mgmt 	dataQueueLen:max 	8
attr interpolationmode  sample-hold
attr title  "data queue length, max"
scalar hierarchical.gw[0].wlan[1].mgmt 	dataQueueLen:timeavg 	0.0042975560911111
attr interpolationmode  sample-hold
attr title  "data queue length, timeavg"
scalar hierarchical.gw[0].wlan[1].mgmt 	dropPkByQueue:count 	0
attr interpolationmode  none
attr source  dropPkByQueue
attr title  "packets dropped by queue, count"
scalar hierarchical.gw[0].wlan[1].mgmt 	dropPkByQueue:sum(packetBytes) 	0
attr interpolationmode  none
attr source  dropPkByQueue
attr title  "packets dropped by queue, sum(packetBytes)"
scalar hierarchical.gw[0].wlan[1].mac 	"number of received packets" 	20940
scalar hierarchical.gw[0].wlan[1].mac 	"number of collisions" 	7209
scalar hierarchical.gw[0].wlan[1].mac 	"number of internal collisions" 	0
scalar hierarchical.gw[0].wlan[1].mac 	"number of retry for AC 0" 	2437
scalar hierarchical.gw[0].wlan[1].mac 	"sent and received bits" 	37750783
scalar hierarchical.gw[0].wlan[1].mac 	"sent packet within AC 0" 	22691
scalar hierarchical.gw[0].wlan[1].mac 	"sent in TXOP " 	0
scalar hierarchical.gw[0].wlan[1].mac 	"sentWithoutRetry AC 0" 	21357
scalar hierarchical.gw[0].wlan[1].mac 	"numGivenUp AC 0" 	21
scalar hierarchical.gw[0].wlan[1].mac 	"numDropped AC 0" 	0
scalar hierarchical.gw[0].wlan[1].mac 	rcvdPkFromHL:count 	23607
attr interpolationmode  none
attr source  packetReceivedFromUpper
attr title  "packets received from higher layer, count"
scalar hierarchical.gw[0].wlan[1].mac 	rcvdPkFromHL:sum(packetBytes) 	4723291
attr interpolationmode  none
attr source  packetReceivedFromUpper
attr title  "packets received from higher layer, sum(packetBytes)"
scalar hierarchical.gw[0].wlan[1].mac 	passedUpPk:count 	25756
attr interpolationmode  none
attr source  packetSentToUpper
attr title  "packets passed to higher layer, count"
scalar hierarchical.gw[0].wlan[1].mac 	passedUpPk:sum(packetBytes) 	4790270
attr interpolationmode  none
attr source  packetSentToUpper
attr title  "packets passed to higher layer, sum(packetBytes)"
scalar hierarchical.gw[0].wlan[1].mac 	rcvdPkFromLL:count 	267880
attr interpolationmode  none
attr source  packetReceivedFromLower
attr title  "packets received from lower layer, count"
scalar hierarchical.gw[0].wlan[1].mac 	rcvdPkFromLL:sum(packetBytes) 	29823632
attr interpolationmode  none
attr source  packetReceivedFromLower
attr title  "packets received from lower layer, sum(packetBytes)"
scalar hierarchical.gw[0].wlan[1].mac 	sentDownPk:count 	46984
attr interpolationmode  none
attr source  packetSentToLower
attr title  "packets sent to lower layer, count"
scalar hierarchical.gw[0].wlan[1].mac 	sentDownPk:sum(packetBytes) 	5477245
attr interpolationmode  none
attr source  packetSentToLower
attr title  "packets sent to lower layer, sum(packetBytes)"
scalar hierarchical.gw[0].wlan[1].radio 	lossRate:min 	0
attr interpolationmode  backward-sample-hold
attr title  "packet loss rate, min"
scalar hierarchical.gw[0].wlan[1].radio 	lossRate:max 	0.28
attr interpolationmode  backward-sample-hold
attr title  "packet loss rate, max"
scalar hierarchical.gw[0].wlan[1].radio 	lossRate:timeavg 	0.012422282064597
attr interpolationmode  backward-sample-hold
attr title  "packet loss rate, timeavg"
statistic hierarchical.gw[0].wlan[1].radio 	channelNo:histogram
field count 1
field mean 1
field stddev -nan
field sum 1
field sqrsum 1
field min 1
field max 1
attr interpolationmode  sample-hold
attr title  "channel no, histogram"
bin	-INF	0
bin	0	0
bin	1	1
bin	2	0
scalar hierarchical.gw[0].wlan[1].radio 	bitrate:min 	11000000
attr interpolationmode  sample-hold
attr title  "tx bitrate, min"
attr unit  bps
scalar hierarchical.gw[0].wlan[1].radio 	bitrate:max 	11000000
attr interpolationmode  sample-hold
attr title  "tx bitrate, max"
attr unit  bps
scalar hierarchical.gw[0].wlan[1].radio 	bitrate:timeavg 	11000000
attr interpolationmode  sample-hold
attr title  "tx bitrate, timeavg"
attr unit  bps
scalar hierarchical.gw[0].wlan[1].radio 	radioState:count 	634998
attr interpolationmode  sample-hold
attr title  "radio state (enum), count"
scalar hierarchical.gw[0].manetrouting 	OLSR_HNA_Messages_(Forwarded) 	611
scalar hierarchical.gw[0].manetrouting 	OLSR_TC_Messages_(Forwarded) 	2812
scalar hierarchical.gw[0].manetrouting 	OLSR_Total_HELLO 	511
scalar hierarchical.gw[0].manetrouting 	OLSR_Total_HNA_(originated) 	190
scalar hierarchical.gw[0].manetrouting 	OLSR_Total_TC 	188
scalar hierarchical.gw[0].manetrouting 	OLSR_Total_Messages_Sent 	4312
scalar hierarchical.gw[0].backbonemanetrouting 	OLSR_HNA_Messages_(Forwarded) 	0
scalar hierarchical.gw[0].backbonemanetrouting 	OLSR_TC_Messages_(Forwarded) 	580
scalar hierarchical.gw[0].backbonemanetrouting 	OLSR_Total_HELLO 	512
scalar hierarchical.gw[0].backbonemanetrouting 	OLSR_Total_HNA_(originated) 	0
scalar hierarchical.gw[0].backbonemanetrouting 	OLSR_Total_TC 	112
scalar hierarchical.gw[0].backbonemanetrouting 	OLSR_Total_Messages_Sent 	1204
scalar hierarchical.gw[0].udp 	droppedPkBadChecksum:count 	0
attr interpolationmode  none
attr title  "packets dropped (checksum error), count"
scalar hierarchical.gw[0].udp 	droppedPkWrongPort:count 	0
attr interpolationmode  none
attr title  "packets dropped (wrong port), count"
scalar hierarchical.gw[0].udp 	passedUpPk:count 	1840
attr interpolationmode  none
attr title  "packets passed up, count"
scalar hierarchical.gw[0].udp 	rcvdPk:count 	1840
attr interpolationmode  none
attr source  rcvdPk
attr title  "packets received, count"
scalar hierarchical.gw[0].udp 	rcvdPk:sum(packetBytes) 	135461
attr interpolationmode  none
attr source  rcvdPk
attr title  "packets received, sum(packetBytes)"
scalar hierarchical.gw[0].udp 	sentPk:count 	1904
attr interpolationmode  none
attr source  sentPk
attr title  "packets sent, count"
scalar hierarchical.gw[0].udp 	sentPk:sum(packetBytes) 	143519
attr interpolationmode  none
attr source  sentPk
attr title  "packets sent, sum(packetBytes)"
scalar hierarchical.gw[0].pingApp[0] 	numOutOfOrderArrivals:last 	-nan
attr interpolationmode  none
attr title  "ping out-of-order arrivals, last"
scalar hierarchical.gw[0].pingApp[0] 	pingRxSeq:count 	0
attr interpolationmode  none
attr title  "ping rx seq, count"
scalar hierarchical.gw[0].pingApp[0] 	pingTxSeq:count 	0
attr interpolationmode  none
attr title  "ping tx seq, count"
scalar hierarchical.gw[0].pingApp[0] 	numLost:last 	-nan
attr interpolationmode  none
attr title  "pings lost, last"
statistic hierarchical.gw[0].pingApp[0] 	rtt:histogram
field count 0
field mean -nan
field stddev -nan
field sum 0
field sqrsum 0
field min -nan
field max -nan
attr interpolationmode  none
attr title  "ping round-trip time, histogram"
attr unit  s
bin	-INF	0
bin	-0.5	0
bin	-0.46666666666667	0
bin	-0.43333333333333	0
bin	-0.4	0
bin	-0.36666666666667	0
bin	-0.33333333333333	0
bin	-0.3	0
bin	-0.26666666666667	0
bin	-0.23333333333333	0
bin	-0.2	0
bin	-0.16666666666667	0
bin	-0.13333333333333	0
bin	-0.1	0
bin	-0.066666666666667	0
bin	-0.033333333333333	0
bin	0	0
bin	0.033333333333333	0
bin	0.066666666666667	0
bin	0.1	0
bin	0.13333333333333	0
bin	0.16666666666667	0
bin	0.2	0
bin	0.23333333333333	0
bin	0.26666666666667	0
bin	0.3	0
bin	0.33333333333333	0
bin	0.36666666666667	0
bin	0.4	0
bin	0.43333333333333	0
bin	0.46666666666667	0
bin	0.5	0
scalar hierarchical.gw[0].pingTestApp[0] 	numOutOfOrderArrivals:last 	-nan
attr interpolationmode  none
attr title  "ping out-of-order arrivals, last"
scalar hierarchical.gw[0].pingTestApp[0] 	pingRxSeq:count 	0
attr interpolationmode  none
attr title  "ping rx seq, count"
scalar hierarchical.gw[0].pingTestApp[0] 	pingTxSeq:count 	0
attr interpolationmode  none
attr title  "ping tx seq, count"
scalar hierarchical.gw[0].pingTestApp[0] 	numLost:last 	-nan
attr interpolationmode  none
attr title  "pings lost, last"
statistic hierarchical.gw[0].pingTestApp[0] 	rtt:histogram
field count 0
field mean -nan
field stddev -nan
field sum 0
field sqrsum 0
field min -nan
field max -nan
attr interpolationmode  none
attr title  "ping round-trip time, histogram"
attr unit  s
bin	-INF	0
bin	-0.5	0
bin	-0.46666666666667	0
bin	-0.43333333333333	0
bin	-0.4	0
bin	-0.36666666666667	0
bin	-0.33333333333333	0
bin	-0.3	0
bin	-0.26666666666667	0
bin	-0.23333333333333	0
bin	-0.2	0
bin	-0.16666666666667	0
bin	-0.13333333333333	0
bin	-0.1	0
bin	-0.066666666666667	0
bin	-0.033333333333333	0
bin	0	0
bin	0.033333333333333	0
bin	0.066666666666667	0
bin	0.1	0
bin	0.13333333333333	0
bin	0.16666666666667	0
bin	0.2	0
bin	0.23333333333333	0
bin	0.26666666666667	0
bin	0.3	0
bin	0.33333333333333	0
bin	0.36666666666667	0
bin	0.4	0
bin	0.43333333333333	0
bin	0.46666666666667	0
bin	0.5	0
scalar hierarchical.gw[1].networkLayer.arp 	failedARPResolution:count 	0
attr title  "ARP failed resolutions, count"
scalar hierarchical.gw[1].networkLayer.arp 	completedARPResolution:count 	775
attr title  "ARP completed resolutions, count"
scalar hierarchical.gw[1].networkLayer.arp 	initiatedARPResolution:count 	43
attr title  "ARP initiated resolutions, count"
scalar hierarchical.gw[1].networkLayer.arp 	sentReply:count 	50
attr title  "ARP replies sent, count"
scalar hierarchical.gw[1].networkLayer.arp 	sentReq:count 	45
attr title  "ARP request sent, count"
scalar hierarchical.gw[1].lo0.lo 	droppedPkBitError:count 	0
attr interpolationmode  none
attr source  dropPkBitError
attr title  "packets dropped/bit error, count"
scalar hierarchical.gw[1].lo0.lo 	droppedPkBitError:sum(packetBytes) 	0
attr interpolationmode  none
attr source  dropPkBitError
attr title  "packets dropped/bit error, sum(packetBytes)"
scalar hierarchical.gw[1].lo0.lo 	rcvdPkFromHL:count 	874
attr interpolationmode  none
attr source  packetReceivedFromUpper
attr title  "packets received from higher layer, count"
scalar hierarchical.gw[1].lo0.lo 	rcvdPkFromHL:sum(packetBytes) 	52321
attr interpolationmode  none
attr source  packetReceivedFromUpper
attr title  "packets received from higher layer, sum(packetBytes)"
scalar hierarchical.gw[1].lo0.lo 	passedUpPk:count 	874
attr interpolationmode  none
attr source  packetSentToUpper
attr title  "packets passed to higher layer, count"
scalar hierarchical.gw[1].lo0.lo 	passedUpPk:sum(packetBytes) 	52321
attr interpolationmode  none
attr source  packetSentToUpper
attr title  "packets passed to higher layer, sum(packetBytes)"
scalar hierarchical.gw[1].wlan[0].mgmt 	dataQueueLen:max 	10
attr interpolationmode  sample-hold
attr title  "data queue length, max"
scalar hierarchical.gw[1].wlan[0].mgmt 	dataQueueLen:timeavg 	0.0044319011377778
attr interpolationmode  sample-hold
attr title  "data queue length, timeavg"
scalar hierarchical.gw[1].wlan[0].mgmt 	dropPkByQueue:count 	24
attr interpolationmode  none
attr source  dropPkByQueue
attr title  "packets dropped by queue, count"
scalar hierarchical.gw[1].wlan[0].mgmt 	dropPkByQueue:sum(packetBytes) 	4440
attr interpolationmode  none
attr source  dropPkByQueue
attr title  "packets dropped by queue, sum(packetBytes)"
scalar hierarchical.gw[1].wlan[0].mac 	"number of received packets" 	20591
scalar hierarchical.gw[1].wlan[0].mac 	"number of collisions" 	89713
scalar hierarchical.gw[1].wlan[0].mac 	"number of internal collisions" 	0
scalar hierarchical.gw[1].wlan[0].mac 	"number of retry for AC 0" 	8011
scalar hierarchical.gw[1].wlan[0].mac 	"sent and received bits" 	31221824
scalar hierarchical.gw[1].wlan[0].mac 	"sent packet within AC 0" 	18244
scalar hierarchical.gw[1].wlan[0].mac 	"sent in TXOP " 	0
scalar hierarchical.gw[1].wlan[0].mac 	"sentWithoutRetry AC 0" 	15352
scalar hierarchical.gw[1].wlan[0].mac 	"numGivenUp AC 0" 	300
scalar hierarchical.gw[1].wlan[0].mac 	"numDropped AC 0" 	0
scalar hierarchical.gw[1].wlan[0].mac 	rcvdPkFromHL:count 	21874
attr interpolationmode  none
attr source  packetReceivedFromUpper
attr title  "packets received from higher layer, count"
scalar hierarchical.gw[1].wlan[0].mac 	rcvdPkFromHL:sum(packetBytes) 	3959728
attr interpolationmode  none
attr source  packetReceivedFromUpper
attr title  "packets received from higher layer, sum(packetBytes)"
scalar hierarchical.gw[1].wlan[0].mac 	passedUpPk:count 	42889
attr interpolationmode  none
attr source  packetSentToUpper
attr title  "packets passed to higher layer, count"
scalar hierarchical.gw[1].wlan[0].mac 	passedUpPk:sum(packetBytes) 	6828094
attr interpolationmode  none
attr source  packetSentToUpper
attr title  "packets passed to higher layer, sum(packetBytes)"
scalar hierarchical.gw[1].wlan[0].mac 	rcvdPkFromLL:count 	569898
attr interpolationmode  none
attr source  packetReceivedFromLower
attr title  "packets received from lower layer, count"
scalar hierarchical.gw[1].wlan[0].mac 	rcvdPkFromLL:sum(packetBytes) 	66201984
attr interpolationmode  none
attr source  packetReceivedFromLower
attr title  "packets received from lower layer, sum(packetBytes)"
scalar hierarchical.gw[1].wlan[0].mac 	sentDownPk:count 	50476
attr interpolationmode  none
attr source  packetSentToLower
attr title  "packets sent to lower layer, count"
scalar hierarchical.gw[1].wlan[0].mac 	sentDownPk:sum(packetBytes) 	5769972
attr interpolationmode  none
attr source  packetSentToLower
attr title  "packets sent to lower layer, sum(packetBytes)"
scalar hierarchical.gw[1].wlan[0].radio 	lossRate:min 	0
attr interpolationmode  backward-sample-hold
attr title  "packet loss rate, min"
scalar hierarchical.gw[1].wlan[0].radio 	lossRate:max 	0.7
attr interpolationmode  backward-sample-hold
attr title  "packet loss rate, max"
scalar hierarchical.gw[1].wlan[0].radio 	lossRate:timeavg 	0.11648034717276
attr interpolationmode  backward-sample-hold
attr title  "packet loss rate, timeavg"
statistic hierarchical.gw[1].wlan[0].radio 	channelNo:histogram
field count 1
field mean 0
field stddev -nan
field sum 0
field sqrsum 0
field min 0
field max 0
attr interpolationmode  sample-hold
attr title  "channel no, histogram"
bin	-INF	0
bin	-0.5	0
bin	-0.46666666666667	0
bin	-0.43333333333333	0
bin	-0.4	0
bin	-0.36666666666667	0
bin	-0.33333333333333	0
bin	-0.3	0
bin	-0.26666666666667	0
bin	-0.23333333333333	0
bin	-0.2	0
bin	-0.16666666666667	0
bin	-0.13333333333333	0
bin	-0.1	0
bin	-0.066666666666667	0
bin	-0.033333333333333	0
bin	0	1
bin	0.033333333333333	0
bin	0.066666666666667	0
bin	0.1	0
bin	0.13333333333333	0
bin	0.16666666666667	0
bin	0.2	0
bin	0.23333333333333	0
bin	0.26666666666667	0
bin	0.3	0
bin	0.33333333333333	0
bin	0.36666666666667	0
bin	0.4	0
bin	0.43333333333333	0
bin	0.46666666666667	0
bin	0.5	0
scalar hierarchical.gw[1].wlan[0].radio 	bitrate:min 	11000000
attr interpolationmode  sample-hold
attr title  "tx bitrate, min"
attr unit  bps
scalar hierarchical.gw[1].wlan[0].radio 	bitrate:max 	11000000
attr interpolationmode  sample-hold
attr title  "tx bitrate, max"
attr unit  bps
scalar hierarchical.gw[1].wlan[0].radio 	bitrate:timeavg 	11000000
attr interpolationmode  sample-hold
attr title  "tx bitrate, timeavg"
attr unit  bps
scalar hierarchical.gw[1].wlan[0].radio 	radioState:count 	1224987
attr interpolationmode  sample-hold
attr title  "radio state (enum), count"
scalar hierarchical.gw[1].wlan[1].mgmt 	dataQueueLen:max 	8
attr interpolationmode  sample-hold
attr title  "data queue length, max"
scalar hierarchical.gw[1].wlan[1].mgmt 	dataQueueLen:timeavg 	0.00745712371
attr interpolationmode  sample-hold
attr title  "data queue length, timeavg"
scalar hierarchical.gw[1].wlan[1].mgmt 	dropPkByQueue:count 	0
attr interpolationmode  none
attr source  dropPkByQueue
attr title  "packets dropped by queue, count"
scalar hierarchical.gw[1].wlan[1].mgmt 	dropPkByQueue:sum(packetBytes) 	0
attr interpolationmode  none
attr source  dropPkByQueue
attr title  "packets dropped by queue, sum(packetBytes)"
scalar hierarchical.gw[1].wlan[1].mac 	"number of received packets" 	32656
scalar hierarchical.gw[1].wlan[1].mac 	"number of collisions" 	6813
scalar hierarchical.gw[1].wlan[1].mac 	"number of internal collisions" 	0
scalar hierarchical.gw[1].wlan[1].mac 	"number of retry for AC 0" 	2233
scalar hierarchical.gw[1].wlan[1].mac 	"sent and received bits" 	54826257
scalar hierarchical.gw[1].wlan[1].mac 	"sent packet within AC 0" 	33000
scalar hierarchical.gw[1].wlan[1].mac 	"sent in TXOP " 	0
scalar hierarchical.gw[1].wlan[1].mac 	"sentWithoutRetry AC 0" 	31732
scalar hierarchical.gw[1].wlan[1].mac 	"numGivenUp AC 0" 	60
scalar hierarchical.gw[1].wlan[1].mac 	"numDropped AC 0" 	0
scalar hierarchical.gw[1].wlan[1].mac 	rcvdPkFromHL:count 	33906
attr interpolationmode  none
attr source  packetReceivedFromUpper
attr title  "packets received from higher layer, count"
scalar hierarchical.gw[1].wlan[1].mac 	rcvdPkFromHL:sum(packetBytes) 	6866194
attr interpolationmode  none
attr source  packetReceivedFromUpper
attr title  "packets received from higher layer, sum(packetBytes)"
scalar hierarchical.gw[1].wlan[1].mac 	passedUpPk:count 	37853
attr interpolationmode  none
attr source  packetSentToUpper
attr title  "packets passed to higher layer, count"
scalar hierarchical.gw[1].wlan[1].mac 	passedUpPk:sum(packetBytes) 	7268739
attr interpolationmode  none
attr source  packetSentToUpper
attr title  "packets passed to higher layer, sum(packetBytes)"
scalar hierarchical.gw[1].wlan[1].mac 	rcvdPkFromLL:count 	262992
attr interpolationmode  none
attr source  packetReceivedFromLower
attr title  "packets received from lower layer, count"
scalar hierarchical.gw[1].wlan[1].mac 	rcvdPkFromLL:sum(packetBytes) 	28930768
attr interpolationmode  none
attr source  packetReceivedFromLower
attr title  "packets received from lower layer, sum(packetBytes)"
scalar hierarchical.gw[1].wlan[1].mac 	sentDownPk:count 	68795
attr interpolationmode  none
attr source  packetSentToLower
attr title  "packets sent to lower layer, count"
scalar hierarchical.gw[1].wlan[1].mac 	sentDownPk:sum(packetBytes) 	7782422
attr interpolationmode  none
attr source  packetSentToLower
attr title  "packets sent to lower layer, sum(packetBytes)"
scalar hierarchical.gw[1].wlan[1].radio 	lossRate:min 	0
attr interpolationmode  backward-sample-hold
attr title  "packet loss rate, min"
scalar hierarchical.gw[1].wlan[1].radio 	lossRate:max 	0.32
attr interpolationmode  backward-sample-hold
attr title  "packet loss rate, max"
scalar hierarchical.gw[1].wlan[1].radio 	lossRate:timeavg 	0.015170142029682
attr interpolationmode  backward-sample-hold
attr title  "packet loss rate, timeavg"
statistic hierarchical.gw[1].wlan[1].radio 	channelNo:histogram
field count 1
field mean 1
field stddev -nan
field sum 1
field sqrsum 1
field min 1
field max 1
attr interpolationmode  sample-hold
attr title  "channel no, histogram"
bin	-INF	0
bin	0	0
bin	1	1
bin	2	0
scalar hierarchical.gw[1].wlan[1].radio 	bitrate:min 	11000000
attr interpolationmode  sample-hold
attr title  "tx bitrate, min"
attr unit  bps
scalar hierarchical.gw[1].wlan[1].radio 	bitrate:max 	11000000
attr interpolationmode  sample-hold
attr title  "tx bitrate, max"
attr unit  bps
scalar hierarchical.gw[1].wlan[1].radio 	bitrate:timeavg 	11000000
attr interpolationmode  sample-hold
attr title  "tx bitrate, timeavg"
attr unit  bps
scalar hierarchical.gw[1].wlan[1].radio 	radioState:count 	663947
attr interpolationmode  sample-hold
attr title  "radio state (enum), count"
scalar hierarchical.gw[1].manetrouting 	OLSR_HNA_Messages_(Forwarded) 	570
scalar hierarchical.gw[1].manetrouting 	OLSR_TC_Messages_(Forwarded) 	2834
scalar hierarchical.gw[1].manetrouting 	OLSR_Total_HELLO 	516
scalar hierarchical.gw[1].manetrouting 	OLSR_Total_HNA_(originated) 	190
scalar hierarchical.gw[1].manetrouting 	OLSR_Total_TC 	164
scalar hierarchical.gw[1].manetrouting 	OLSR_Total_Messages_Sent 	4274
scalar hierarchical.gw[1].backbonemanetrouting 	OLSR_HNA_Messages_(Forwarded) 	0
scalar hierarchical.gw[1].backbonemanetrouting 	OLSR_TC_Messages_(Forwarded) 	584
scalar hierarchical.gw[1].backbonemanetrouting 	OLSR_Total_HELLO 	512
scalar hierarchical.gw[1].backbonemanetrouting 	OLSR_Total_HNA_(originated) 	0
scalar hierarchical.gw[1].backbonemanetrouting 	OLSR_Total_TC 	108
scalar hierarchical.gw[1].backbonemanetrouting 	OLSR_Total_Messages_Sent 	1204
scalar hierarchical.gw[1].udp 	droppedPkBadChecksum:count 	0
attr interpolationmode  none
attr title  "packets dropped (checksum error), count"
scalar hierarchical.gw[1].udp 	droppedPkWrongPort:count 	0
attr interpolationmode  none
attr title  "packets dropped (wrong port), count"
scalar hierarchical.gw[1].udp 	passedUpPk:count 	1794
attr interpolationmode  none
attr title  "packets passed up, count"
scalar hierarchical.gw[1].udp 	rcvdPk:count 	1794
attr interpolationmode  none
attr source  rcvdPk
attr title  "packets received, count"
scalar hierarchical.gw[1].udp 	rcvdPk:sum(packetBytes) 	133213
attr interpolationmode  none
attr source  rcvdPk
attr title  "packets received, sum(packetBytes)"
scalar hierarchical.gw[1].udp 	sentPk:count 	1913
attr interpolationmode  none
attr source  sentPk
attr title  "packets sent, count"
scalar hierarchical.gw[1].udp 	sentPk:sum(packetBytes) 	145807
attr interpolationmode  none
attr source  sentPk
attr title  "packets sent, sum(packetBytes)"
scalar hierarchical.gw[1].pingApp[0] 	numOutOfOrderArrivals:last 	-nan
attr interpolationmode  none
attr title  "ping out-of-order arrivals, last"
scalar hierarchical.gw[1].pingApp[0] 	pingRxSeq:count 	0
attr interpolationmode  none
attr title  "ping rx seq, count"
scalar hierarchical.gw[1].pingApp[0] 	pingTxSeq:count 	0
attr interpolationmode  none
attr title  "ping tx seq, count"
scalar hierarchical.gw[1].pingApp[0] 	numLost:last 	-nan
attr interpolationmode  none
attr title  "pings lost, last"
statistic hierarchical.gw[1].pingApp[0] 	rtt:histogram
field count 0
field mean -nan
field stddev -nan
field sum 0
field sqrsum 0
field min -nan
field max -nan
attr interpolationmode  none
attr title  "ping round-trip time, histogram"
attr unit  s
bin	-INF	0
bin	-0.5	0
bin	-0.46666666666667	0
bin	-0.43333333333333	0
bin	-0.4	0
bin	-0.36666666666667	0
bin	-0.33333333333333	0
bin	-0.3	0
bin	-0.26666666666667	0
bin	-0.23333333333333	0
bin	-0.2	0
bin	-0.16666666666667	0
bin	-0.13333333333333	0
bin	-0.1	0
bin	-0.066666666666667	0
bin	-0.033333333333333	0
bin	0	0
bin	0.033333333333333	0
bin	0.066666666666667	0
bin	0.1	0
bin	0.13333333333333	0
bin	0.16666666666667	0
bin	0.2	0
bin	0.23333333333333	0
bin	0.26666666666667	0
bin	0.3	0
bin	0.33333333333333	0
bin	0.36666666666667	0
bin	0.4	0
bin	0.43333333333333	0
bin	0.46666666666667	0
bin	0.5	0
scalar hierarchical.gw[1].pingTestApp[0] 	numOutOfOrderArrivals:last 	-nan
attr interpolationmode  none
attr title  "ping out-of-order arrivals, last"
scalar hierarchical.gw[1].pingTestApp[0] 	pingRxSeq:count 	0
attr interpolationmode  none
attr title  "ping rx seq, count"
scalar hierarchical.gw[1].pingTestApp[0] 	pingTxSeq:count 	0
attr interpolationmode  none
attr title  "ping tx seq, count"
scalar hierarchical.gw[1].pingTestApp[0] 	numLost:last 	-nan
attr interpolationmode  none
attr title  "pings lost, last"
statistic hierarchical.gw[1].pingTestApp[0] 	rtt:histogram
field count 0
field mean -nan
field stddev -nan
field sum 0
field sqrsum 0
field min -nan
field max -nan
attr interpolationmode  none
attr title  "ping round-trip time, histogram"
attr unit  s
bin	-INF	0
bin	-0.5	0
bin	-0.46666666666667	0
bin	-0.43333333333333	0
bin	-0.4	0
bin	-0.36666666666667	0
bin	-0.33333333333333	0
bin	-0.3	0
bin	-0.26666666666667	0
bin	-0.23333333333333	0
bin	-0.2	0
bin	-0.16666666666667	0
bin	-0.13333333333333	0
bin	-0.1	0
bin	-0.066666666666667	0
bin	-0.033333333333333	0
bin	0	0
bin	0.033333333333333	0
bin	0.066666666666667	0
bin	0.1	0
bin	0.13333333333333	0
bin	0.16666666666667	0
bin	0.2	0
bin	0.23333333333333	0
bin	0.26666666666667	0
bin	0.3	0
bin	0.33333333333333	0
bin	0.36666666666667	0
bin	0.4	0
bin	0.43333333333333	0
bin	0.46666666666667	0
bin	0.5	0
scalar hierarchical.gw[2].networkLayer.arp 	failedARPResolution:count 	2
attr title  "ARP failed resolutions, count"
scalar hierarchical.gw[2].networkLayer.arp 	completedARPResolution:count 	415
attr title  "ARP completed resolutions, count"
scalar hierarchical.gw[2].networkLayer.arp 	initiatedARPResolution:count 	56
attr title  "ARP initiated resolutions, count"
scalar hierarchical.gw[2].networkLayer.arp 	sentReply:count 	36
attr title  "ARP replies sent, count"
scalar hierarchical.gw[2].networkLayer.arp 	sentReq:count 	63
attr title  "ARP request sent, count"
scalar hierarchical.gw[2].lo0.lo 	droppedPkBitError:count 	0
attr interpolationmode  none
attr source  dropPkBitError
attr title  "packets dropped/bit error, count"
scalar hierarchical.gw[2].lo0.lo 	droppedPkBitError:sum(packetBytes) 	0
attr interpolationmode  none
attr source  dropPkBitError
attr title  "packets dropped/bit error, sum(packetBytes)"
scalar hierarchical.gw[2].lo0.lo 	rcvdPkFromHL:count 	483
attr interpolationmode  none
attr source  packetReceivedFromUpper
attr title  "packets received from higher layer, count"
scalar hierarchical.gw[2].lo0.lo 	rcvdPkFromHL:sum(packetBytes) 	31828
attr interpolationmode  none
attr source  packetReceivedFromUpper
attr title  "packets received from higher layer, sum(packetBytes)"
scalar hierarchical.gw[2].lo0.lo 	passedUpPk:count 	483
attr interpolationmode  none
attr source  packetSentToUpper
attr title  "packets passed to higher layer, count"
scalar hierarchical.gw[2].lo0.lo 	passedUpPk:sum(packetBytes) 	31828
attr interpolationmode  none
attr source  packetSentToUpper
attr title  "packets passed to higher layer, sum(packetBytes)"
scalar hierarchical.gw[2].wlan[0].mgmt 	dataQueueLen:max 	5
attr interpolationmode  sample-hold
attr title  "data queue length, max"
scalar hierarchical.gw[2].wlan[0].mgmt 	dataQueueLen:timeavg 	0.0037249247677778
attr interpolationmode  sample-hold
attr title  "data queue length, timeavg"
scalar hierarchical.gw[2].wlan[0].mgmt 	dropPkByQueue:count 	0
attr interpolationmode  none
attr source  dropPkByQueue
attr title  "packets dropped by queue, count"
scalar hierarchical.gw[2].wlan[0].mgmt 	dropPkByQueue:sum(packetBytes) 	0
attr interpolationmode  none
attr source  dropPkByQueue
attr title  "packets dropped by queue, sum(packetBytes)"
scalar hierarchical.gw[2].wlan[0].mac 	"number of received packets" 	29627
scalar hierarchical.gw[2].wlan[0].mac 	"number of collisions" 	53630
scalar hierarchical.gw[2].wlan[0].mac 	"number of internal collisions" 	0
scalar hierarchical.gw[2].wlan[0].mac 	"number of retry for AC 0" 	7984
scalar hierarchical.gw[2].wlan[0].mac 	"sent and received bits" 	40675792
scalar hierarchical.gw[2].wlan[0].mac 	"sent packet within AC 0" 	24818
scalar hierarchical.gw[2].wlan[0].mac 	"sent in TXOP " 	0
scalar hierarchical.gw[2].wlan[0].mac 	"sentWithoutRetry AC 0" 	22205
scalar hierarchical.gw[2].wlan[0].mac 	"numGivenUp AC 0" 	308
scalar hierarchical.gw[2].wlan[0].mac 	"numDropped AC 0" 	0
scalar hierarchical.gw[2].wlan[0].mac 	rcvdPkFromHL:count 	28013
attr interpolationmode  none
attr source  packetReceivedFromUpper
attr title  "packets received from higher layer, count"
scalar hierarchical.gw[2].wlan[0].mac 	rcvdPkFromHL:sum(packetBytes) 	5142994
attr interpolationmode  none
attr source  packetReceivedFromUpper
attr title  "packets received from higher layer, sum(packetBytes)"
scalar hierarchical.gw[2].wlan[0].mac 	passedUpPk:count 	46359
attr interpolationmode  none
attr source  packetSentToUpper
attr title  "packets passed to higher layer, count"
scalar hierarchical.gw[2].wlan[0].mac 	passedUpPk:sum(packetBytes) 	7858042
attr interpolationmode  none
attr source  packetSentToUpper
attr title  "packets passed to higher layer, sum(packetBytes)"
scalar hierarchical.gw[2].wlan[0].mac 	rcvdPkFromLL:count 	375054
attr interpolationmode  none
attr source  packetReceivedFromLower
attr title  "packets received from lower layer, count"
scalar hierarchical.gw[2].wlan[0].mac 	rcvdPkFromLL:sum(packetBytes) 	43973960
attr interpolationmode  none
attr source  packetReceivedFromLower
attr title  "packets received from lower layer, sum(packetBytes)"
scalar hierarchical.gw[2].wlan[0].mac 	sentDownPk:count 	65624
attr interpolationmode  none
attr source  packetSentToLower
attr title  "packets sent to lower layer, count"
scalar hierarchical.gw[2].wlan[0].mac 	sentDownPk:sum(packetBytes) 	7073892
attr interpolationmode  none
attr source  packetSentToLower
attr title  "packets sent to lower layer, sum(packetBytes)"
scalar hierarchical.gw[2].wlan[0].radio 	lossRate:min 	0
attr interpolationmode  backward-sample-hold
attr title  "packet loss rate, min"
scalar hierarchical.gw[2].wlan[0].radio 	lossRate:max 	0.6
attr interpolationmode  backward-sample-hold
attr title  "packet loss rate, max"
scalar hierarchical.gw[2].wlan[0].radio 	lossRate:timeavg 	0.1001973849306
attr interpolationmode  backward-sample-hold
attr title  "packet loss rate, timeavg"
statistic hierarchical.gw[2].wlan[0].radio 	channelNo:histogram
field count 1
field mean 0
field stddev -nan
field sum 0
field sqrsum 0
field min 0
field max 0
attr interpolationmode  sample-hold
attr title  "channel no, histogram"
bin	-INF	0
bin	-0.5	0
bin	-0.46666666666667	0
bin	-0.43333333333333	0
bin	-0.4	0
bin	-0.36666666666667	0
bin	-0.33333333333333	0
bin	-0.3	0
bin	-0.26666666666667	0
bin	-0.23333333333333	0
bin	-0.2	0
bin	-0.16666666666667	0
bin	-0.13333333333333	0
bin	-0.1	0
bin	-0.066666666666667	0
bin	-0.033333333333333	0
bin	0	1
bin	0.033333333333333	0
bin	0.066666666666667	0
bin	0.1	0
bin	0.13333333333333	0
bin	0.16666666666667	0
bin	0.2	0
bin	0.23333333333333	0
bin	0.26666666666667	0
bin	0.3	0
bin	0.33333333333333	0
bin	0.36666666666667	0
bin	0.4	0
bin	0.43333333333333	0
bin	0.46666666666667	0
bin	0.5	0
scalar hierarchical.gw[2].wlan[0].radio 	bitrate:min 	11000000
attr interpolationmode  sample-hold
attr title  "tx bitrate, min"
attr unit  bps
scalar hierarchical.gw[2].wlan[0].radio 	bitrate:max 	11000000
attr interpolationmode  sample-hold
attr title  "tx bitrate, max"
attr unit  bps
scalar hierarchical.gw[2].wlan[0].radio 	bitrate:timeavg 	11000000
attr interpolationmode  sample-hold
attr title  "tx bitrate, timeavg"
attr unit  bps
scalar hierarchical.gw[2].wlan[0].radio 	radioState:count 	914891
attr interpolationmode  sample-hold
attr title  "radio state (enum), count"
scalar hierarchical.gw[2].wlan[1].mgmt 	dataQueueLen:max 	10
attr interpolationmode  sample-hold
attr title  "data queue length, max"
scalar hierarchical.gw[2].wlan[1].mgmt 	dataQueueLen:timeavg 	0.01304121477
attr interpolationmode  sample-hold
attr title  "data queue length, timeavg"
scalar hierarchical.gw[2].wlan[1].mgmt 	dropPkByQueue:count 	0
attr interpolationmode  none
attr source  dropPkByQueue
attr title  "packets dropped by queue, count"
scalar hierarchical.gw[2].wlan[1].mgmt 	dropPkByQueue:sum(packetBytes) 	0
attr interpolationmode  none
attr source  dropPkByQueue
attr title  "packets dropped by queue, sum(packetBytes)"
scalar hierarchical.gw[2].wlan[1].mac 	"number of received packets" 	26954
scalar hierarchical.gw[2].wlan[1].mac 	"number of collisions" 	8406
scalar hierarchical.gw[2].wlan[1].mac 	"number of internal collisions" 	0
scalar hierarchical.gw[2].wlan[1].mac 	"number of retry for AC 0" 	1882
scalar hierarchical.gw[2].wlan[1].mac 	"sent and received bits" 	50280548
scalar hierarchical.gw[2].wlan[1].mac 	"sent packet within AC 0" 	30435
scalar hierarchical.gw[2].wlan[1].mac 	"sent in TXOP " 	0
scalar hierarchical.gw[2].wlan[1].mac 	"sentWithoutRetry AC 0" 	29019
scalar hierarchical.gw[2].wlan[1].mac 	"numGivenUp AC 0" 	1
scalar hierarchical.gw[2].wlan[1].mac 	"numDropped AC 0" 	0
scalar hierarchical.gw[2].wlan[1].mac 	rcvdPkFromHL:count 	31215
attr interpolationmode  none
attr source  packetReceivedFromUpper
attr title  "packets received from higher layer, count"
scalar hierarchical.gw[2].wlan[1].mac 	rcvdPkFromHL:sum(packetBytes) 	6285915
attr interpolationmode  none
attr source  packetReceivedFromUpper
attr title  "packets received from higher layer, sum(packetBytes)"
scalar hierarchical.gw[2].wlan[1].mac 	passedUpPk:count 	32360
attr interpolationmode  none
attr source  packetSentToUpper
attr title  "packets passed to higher layer, count"
scalar hierarchical.gw[2].wlan[1].mac 	passedUpPk:sum(packetBytes) 	6075926
attr interpolationmode  none
attr source  packetSentToUpper
attr title  "packets passed to higher layer, sum(packetBytes)"
scalar hierarchical.gw[2].wlan[1].mac 	rcvdPkFromLL:count 	279469
attr interpolationmode  none
attr source  packetReceivedFromLower
attr title  "packets received from lower layer, count"
scalar hierarchical.gw[2].wlan[1].mac 	rcvdPkFromLL:sum(packetBytes) 	30529937
attr interpolationmode  none
attr source  packetReceivedFromLower
attr title  "packets received from lower layer, sum(packetBytes)"
scalar hierarchical.gw[2].wlan[1].mac 	sentDownPk:count 	60050
attr interpolationmode  none
attr source  packetSentToLower
attr title  "packets sent to lower layer, count"
scalar hierarchical.gw[2].wlan[1].mac 	sentDownPk:sum(packetBytes) 	7029326
attr interpolationmode  none
attr source  packetSentToLower
attr title  "packets sent to lower layer, sum(packetBytes)"
scalar hierarchical.gw[2].wlan[1].radio 	lossRate:min 	0
attr interpolationmode  backward-sample-hold
attr title  "packet loss rate, min"
scalar hierarchical.gw[2].wlan[1].radio 	lossRate:max 	0.3
attr interpolationmode  backward-sample-hold
attr title  "packet loss rate, max"
scalar hierarchical.gw[2].wlan[1].radio 	lossRate:timeavg 	0.016359147677295
attr interpolationmode  backward-sample-hold
attr title  "packet loss rate, timeavg"
statistic hierarchical.gw[2].wlan[1].radio 	channelNo:histogram
field count 1
field mean 1
field stddev -nan
field sum 1
field sqrsum 1
field min 1
field max 1
attr interpolationmode  sample-hold
attr title  "channel no, histogram"
bin	-INF	0
bin	0	0
bin	1	1
bin	2	0
scalar hierarchical.gw[2].wlan[1].radio 	bitrate:min 	11000000
attr interpolationmode  sample-hold
attr title  "tx bitrate, min"
attr unit  bps
scalar hierarchical.gw[2].wlan[1].radio 	bitrate:max 	11000000
attr interpolationmode  sample-hold
attr title  "tx bitrate, max"
attr unit  bps
scalar hierarchical.gw[2].wlan[1].radio 	bitrate:timeavg 	11000000
attr interpolationmode  sample-hold
attr title  "tx bitrate, timeavg"
attr unit  bps
scalar hierarchical.gw[2].wlan[1].radio 	radioState:count 	679240
attr interpolationmode  sample-hold
attr title  "radio state (enum), count"
scalar hierarchical.gw[2].manetrouting 	OLSR_HNA_Messages_(Forwarded) 	423
scalar hierarchical.gw[2].manetrouting 	OLSR_TC_Messages_(Forwarded) 	1901
scalar hierarchical.gw[2].manetrouting 	OLSR_Total_HELLO 	515
scalar hierarchical.gw[2].manetrouting 	OLSR_Total_HNA_(originated) 	190
scalar hierarchical.gw[2].manetrouting 	OLSR_Total_TC 	182
scalar hierarchical.gw[2].manetrouting 	OLSR_Total_Messages_Sent 	3211
scalar hierarchical.gw[2].backbonemanetrouting 	OLSR_HNA_Messages_(Forwarded) 	0
scalar hierarchical.gw[2].backbonemanetrouting 	OLSR_TC_Messages_(Forwarded) 	626
scalar hierarchical.gw[2].backbonemanetrouting 	OLSR_Total_HELLO 	517
scalar hierarchical.gw[2].backbonemanetrouting 	OLSR_Total_HNA_(originated) 	0
scalar hierarchical.gw[2].backbonemanetrouting 	OLSR_Total_TC 	70
scalar hierarchical.gw[2].backbonemanetrouting 	OLSR_Total_Messages_Sent 	1213
scalar hierarchical.gw[2].udp 	droppedPkBadChecksum:count 	0
attr interpolationmode  none
attr title  "packets dropped (checksum error), count"
scalar hierarchical.gw[2].udp 	droppedPkWrongPort:count 	0
attr interpolationmode  none
attr title  "packets dropped (wrong port), count"
scalar hierarchical.gw[2].udp 	passedUpPk:count 	1831
attr interpolationmode  none
attr title  "packets passed up, count"
scalar hierarchical.gw[2].udp 	rcvdPk:count 	1831
attr interpolationmode  none
attr source  rcvdPk
attr title  "packets received, count"
scalar hierarchical.gw[2].udp 	rcvdPk:sum(packetBytes) 	141071
attr interpolationmode  none
attr source  rcvdPk
attr title  "packets received, sum(packetBytes)"
scalar hierarchical.gw[2].udp 	sentPk:count 	1900
attr interpolationmode  none
attr source  sentPk
attr title  "packets sent, count"
scalar hierarchical.gw[2].udp 	sentPk:sum(packetBytes) 	136651
attr interpolationmode  none
attr source  sentPk
attr title  "packets sent, sum(packetBytes)"
scalar hierarchical.gw[2].pingApp[0] 	numOutOfOrderArrivals:last 	-nan
attr interpolationmode  none
attr title  "ping out-of-order arrivals, last"
scalar hierarchical.gw[2].pingApp[0] 	pingRxSeq:count 	0
attr interpolationmode  none
attr title  "ping rx seq, count"
scalar hierarchical.gw[2].pingApp[0] 	pingTxSeq:count 	0
attr interpolationmode  none
attr title  "ping tx seq, count"
scalar hierarchical.gw[2].pingApp[0] 	numLost:last 	-nan
attr interpolationmode  none
attr title  "pings lost, last"
statistic hierarchical.gw[2].pingApp[0] 	rtt:histogram
field count 0
field mean -nan
field stddev -nan
field sum 0
field sqrsum 0
field min -nan
field max -nan
attr interpolationmode  none
attr title  "ping round-trip time, histogram"
attr unit  s
bin	-INF	0
bin	-0.5	0
bin	-0.46666666666667	0
bin	-0.43333333333333	0
bin	-0.4	0
bin	-0.36666666666667	0
bin	-0.33333333333333	0
bin	-0.3	0
bin	-0.26666666666667	0
bin	-0.23333333333333	0
bin	-0.2	0
bin	-0.16666666666667	0
bin	-0.13333333333333	0
bin	-0.1	0
bin	-0.066666666666667	0
bin	-0.033333333333333	0
bin	0	0
bin	0.033333333333333	0
bin	0.066666666666667	0
bin	0.1	0
bin	0.13333333333333	0
bin	0.16666666666667	0
bin	0.2	0
bin	0.23333333333333	0
bin	0.26666666666667	0
bin	0.3	0
bin	0.33333333333333	0
bin	0.36666666666667	0
bin	0.4	0
bin	0.43333333333333	0
bin	0.46666666666667	0
bin	0.5	0
scalar hierarchical.gw[2].pingTestApp[0] 	numOutOfOrderArrivals:last 	-nan
attr interpolationmode  none
attr title  "ping out-of-order arrivals, last"
scalar hierarchical.gw[2].pingTestApp[0] 	pingRxSeq:count 	0
attr interpolationmode  none
attr title  "ping rx seq, count"
scalar hierarchical.gw[2].pingTestApp[0] 	pingTxSeq:count 	0
attr interpolationmode  none
attr title  "ping tx seq, count"
scalar hierarchical.gw[2].pingTestApp[0] 	numLost:last 	-nan
attr interpolationmode  none
attr title  "pings lost, last"
statistic hierarchical.gw[2].pingTestApp[0] 	rtt:histogram
field count 0
field mean -nan
field stddev -nan
field sum 0
field sqrsum 0
field min -nan
field max -nan
attr interpolationmode  none
attr title  "ping round-trip time, histogram"
attr unit  s
bin	-INF	0
bin	-0.5	0
bin	-0.46666666666667	0
bin	-0.43333333333333	0
bin	-0.4	0
bin	-0.36666666666667	0
bin	-0.33333333333333	0
bin	-0.3	0
bin	-0.26666666666667	0
bin	-0.23333333333333	0
bin	-0.2	0
bin	-0.16666666666667	0
bin	-0.13333333333333	0
bin	-0.1	0
bin	-0.066666666666667	0
bin	-0.033333333333333	0
bin	0	0
bin	0.033333333333333	0
bin	0.066666666666667	0
bin	0.1	0
bin	0.13333333333333	0
bin	0.16666666666667	0
bin	0.2	0
bin	0.23333333333333	0
bin	0.26666666666667	0
bin	0.3	0
bin	0.33333333333333	0
bin	0.36666666666667	0
bin	0.4	0
bin	0.43333333333333	0
bin	0.46666666666667	0
bin	0.5	0
scalar hierarchical.gw[3].networkLayer.arp 	failedARPResolution:count 	1
attr title  "ARP failed resolutions, count"
scalar hierarchical.gw[3].networkLayer.arp 	completedARPResolution:count 	771
attr title  "ARP completed resolutions, count"
scalar hierarchical.gw[3].networkLayer.arp 	initiatedARPResolution:count 	41
attr title  "ARP initiated resolutions, count"
scalar hierarchical.gw[3].networkLayer.arp 	sentReply:count 	51
attr title  "ARP replies sent, count"
scalar hierarchical.gw[3].networkLayer.arp 	sentReq:count 	45
attr title  "ARP request sent, count"
scalar hierarchical.gw[3].lo0.lo 	droppedPkBitError:count 	0
attr interpolationmode  none
attr source  dropPkBitError
attr title  "packets dropped/bit error, count"
scalar hierarchical.gw[3].lo0.lo 	droppedPkBitError:sum(packetBytes) 	0
attr interpolationmode  none
attr source  dropPkBitError
attr title  "packets dropped/bit error, sum(packetBytes)"
scalar hierarchical.gw[3].lo0.lo 	rcvdPkFromHL:count 	380
attr interpolationmode  none
attr source  packetReceivedFromUpper
attr title  "packets received from higher layer, count"
scalar hierarchical.gw[3].lo0.lo 	rcvdPkFromHL:sum(packetBytes) 	28087
attr interpolationmode  none
attr source  packetReceivedFromUpper
attr title  "packets received from higher layer, sum(packetBytes)"
scalar hierarchical.gw[3].lo0.lo 	passedUpPk:count 	380
attr interpolationmode  none
attr source  packetSentToUpper
attr title  "packets passed to higher layer, count"
scalar hierarchical.gw[3].lo0.lo 	passedUpPk:sum(packetBytes) 	28087
attr interpolationmode  none
attr source  packetSentToUpper
attr title  "packets passed to higher layer, sum(packetBytes)"
scalar hierarchical.gw[3].wlan[0].mgmt 	dataQueueLen:max 	9
attr interpolationmode  sample-hold
attr title  "data queue length, max"
scalar hierarchical.gw[3].wlan[0].mgmt 	dataQueueLen:timeavg 	0.025030054992222
attr interpolationmode  sample-hold
attr title  "data queue length, timeavg"
scalar hierarchical.gw[3].wlan[0].mgmt 	dropPkByQueue:count 	0
attr interpolationmode  none
attr source  dropPkByQueue
attr title  "packets dropped by queue, count"
scalar hierarchical.gw[3].wlan[0].mgmt 	dropPkByQueue:sum(packetBytes) 	0
attr interpolationmode  none
attr source  dropPkByQueue
attr title  "packets dropped by queue, sum(packetBytes)"
scalar hierarchical.gw[3].wlan[0].mac 	"number of received packets" 	32817
scalar hierarchical.gw[3].wlan[0].mac 	"number of collisions" 	76829
scalar hierarchical.gw[3].wlan[0].mac 	"number of internal collisions" 	0
scalar hierarchical.gw[3].wlan[0].mac 	"number of retry for AC 0" 	13956
scalar hierarchical.gw[3].wlan[0].mac 	"sent and received bits" 	48035952
scalar hierarchical.gw[3].wlan[0].mac 	"sent packet within AC 0" 	29302
scalar hierarchical.gw[3].wlan[0].mac 	"sent in TXOP " 	0
scalar hierarchical.gw[3].wlan[0].mac 	"sentWithoutRetry AC 0" 	25235
scalar hierarchical.gw[3].wlan[0].mac 	"numGivenUp AC 0" 	844
scalar hierarchical.gw[3].wlan[0].mac 	"numDropped AC 0" 	0
scalar hierarchical.gw[3].wlan[0].mac 	rcvdPkFromHL:count 	33457
attr interpolationmode  none
attr source  packetReceivedFromUpper
attr title  "packets received from higher layer, count"
scalar hierarchical.gw[3].wlan[0].mac 	rcvdPkFromHL:sum(packetBytes) 	6164854
attr interpolationmode  none
attr source  packetReceivedFromUpper
attr title  "packets received from higher layer, sum(packetBytes)"
scalar hierarchical.gw[3].wlan[0].mac 	passedUpPk:count 	57954
attr interpolationmode  none
attr source  packetSentToUpper
attr title  "packets passed to higher layer, count"
scalar hierarchical.gw[3].wlan[0].mac 	passedUpPk:sum(packetBytes) 	9492840
attr interpolationmode  none
attr source  packetSentToUpper
attr title  "packets passed to higher layer, sum(packetBytes)"
scalar hierarchical.gw[3].wlan[0].mac 	rcvdPkFromLL:count 	591547
attr interpolationmode  none
attr source  packetReceivedFromLower
attr title  "packets received from lower layer, count"
scalar hierarchical.gw[3].wlan[0].mac 	rcvdPkFromLL:sum(packetBytes) 	68075382
attr interpolationmode  none
attr source  packetReceivedFromLower
attr title  "packets received from lower layer, sum(packetBytes)"
scalar hierarchical.gw[3].wlan[0].mac 	sentDownPk:count 	80230
attr interpolationmode  none
attr source  packetSentToLower
attr title  "packets sent to lower layer, count"
scalar hierarchical.gw[3].wlan[0].mac 	sentDownPk:sum(packetBytes) 	9275692
attr interpolationmode  none
attr source  packetSentToLower
attr title  "packets sent to lower layer, sum(packetBytes)"
scalar hierarchical.gw[3].wlan[0].radio 	lossRate:min 	0
attr interpolationmode  backward-sample-hold
attr title  "packet loss rate, min"
scalar hierarchical.gw[3].wlan[0].radio 	lossRate:max 	0.64
attr interpolationmode  backward-sample-hold
attr title  "packet loss rate, max"
scalar hierarchical.gw[3].wlan[0].radio 	lossRate:timeavg 	0.10518284990909
attr interpolationmode  backward-sample-hold
attr title  "packet loss rate, timeavg"
statistic hierarchical.gw[3].wlan[0].radio 	channelNo:histogram
field count 1
field mean 0
field stddev -nan
field sum 0
field sqrsum 0
field min 0
field max 0
attr interpolationmode  sample-hold
attr title  "channel no, histogram"
bin	-INF	0
bin	-0.5	0
bin	-0.46666666666667	0
bin	-0.43333333333333	0
bin	-0.4	0
bin	-0.36666666666667	0
bin	-0.33333333333333	0
bin	-0.3	0
bin	-0.26666666666667	0
bin	-0.23333333333333	0
bin	-0.2	0
bin	-0.16666666666667	0
bin	-0.13333333333333	0
bin	-0.1	0
bin	-0.066666666666667	0
bin	-0.033333333333333	0
bin	0	1
bin	0.033333333333333	0
bin	0.066666666666667	0
bin	0.1	0
bin	0.13333333333333	0
bin	0.16666666666667	0
bin	0.2	0
bin	0.23333333333333	0
bin	0.26666666666667	0
bin	0.3	0
bin	0.33333333333333	0
bin	0.36666666666667	0
bin	0.4	0
bin	0.43333333333333	0
bin	0.46666666666667	0
bin	0.5	0
scalar hierarchical.gw[3].wlan[0].radio 	bitrate:min 	11000000
attr interpolationmode  sample-hold
attr title  "tx bitrate, min"
attr unit  bps
scalar hierarchical.gw[3].wlan[0].radio 	bitrate:max 	11000000
attr interpolationmode  sample-hold
attr title  "tx bitrate, max"
attr unit  bps
scalar hierarchical.gw[3].wlan[0].radio 	bitrate:timeavg 	11000000
attr interpolationmode  sample-hold
attr title  "tx bitrate, timeavg"
attr unit  bps
scalar hierarchical.gw[3].wlan[0].radio 	radioState:count 	1311969
attr interpolationmode  sample-hold
attr title  "radio state (enum), count"
scalar hierarchical.gw[3].wlan[1].mgmt 	dataQueueLen:max 	10
attr interpolationmode  sample-hold
attr title  "data queue length, max"
scalar hierarchical.gw[3].wlan[1].mgmt 	dataQueueLen:timeavg 	0.0041712847988889
attr interpolationmode  sample-hold
attr title  "data queue length, timeavg"
scalar hierarchical.gw[3].wlan[1].mgmt 	dropPkByQueue:count 	0
attr interpolationmode  none
attr source  dropPkByQueue
attr title  "packets dropped by queue, count"
scalar hierarchical.gw[3].wlan[1].mgmt 	dropPkByQueue:sum(packetBytes) 	0
attr interpolationmode  none
attr source  dropPkByQueue
attr title  "packets dropped by queue, sum(packetBytes)"
scalar hierarchical.gw[3].wlan[1].mac 	"number of received packets" 	13249
scalar hierarchical.gw[3].wlan[1].mac 	"number of collisions" 	6005
scalar hierarchical.gw[3].wlan[1].mac 	"number of internal collisions" 	0
scalar hierarchical.gw[3].wlan[1].mac 	"number of retry for AC 0" 	1952
scalar hierarchical.gw[3].wlan[1].mac 	"sent and received bits" 	23037060
scalar hierarchical.gw[3].wlan[1].mac 	"sent packet within AC 0" 	14097
scalar hierarchical.gw[3].wlan[1].mac 	"sent in TXOP " 	0
scalar hierarchical.gw[3].wlan[1].mac 	"sentWithoutRetry AC 0" 	13085
scalar hierarchical.gw[3].wlan[1].mac 	"numGivenUp AC 0" 	16
scalar hierarchical.gw[3].wlan[1].mac 	"numDropped AC 0" 	0
scalar hierarchical.gw[3].wlan[1].mac 	rcvdPkFromHL:count 	15019
attr interpolationmode  none
attr source  packetReceivedFromUpper
attr title  "packets received from higher layer, count"
scalar hierarchical.gw[3].wlan[1].mac 	rcvdPkFromHL:sum(packetBytes) 	2883424
attr interpolationmode  none
attr source  packetReceivedFromUpper
attr title  "packets received from higher layer, sum(packetBytes)"
scalar hierarchical.gw[3].wlan[1].mac 	passedUpPk:count 	18008
attr interpolationmode  none
attr source  packetSentToUpper
attr title  "packets passed to higher layer, count"
scalar hierarchical.gw[3].wlan[1].mac 	passedUpPk:sum(packetBytes) 	3142751
attr interpolationmode  none
attr source  packetSentToUpper
attr title  "packets passed to higher layer, sum(packetBytes)"
scalar hierarchical.gw[3].wlan[1].mac 	rcvdPkFromLL:count 	275106
attr interpolationmode  none
attr source  packetReceivedFromLower
attr title  "packets received from lower layer, count"
scalar hierarchical.gw[3].wlan[1].mac 	rcvdPkFromLL:sum(packetBytes) 	30702801
attr interpolationmode  none
attr source  packetReceivedFromLower
attr title  "packets received from lower layer, sum(packetBytes)"
scalar hierarchical.gw[3].wlan[1].mac 	sentDownPk:count 	30219
attr interpolationmode  none
attr source  packetSentToLower
attr title  "packets sent to lower layer, count"
scalar hierarchical.gw[3].wlan[1].mac 	sentDownPk:sum(packetBytes) 	3452887
attr interpolationmode  none
attr source  packetSentToLower
attr title  "packets sent to lower layer, sum(packetBytes)"
scalar hierarchical.gw[3].wlan[1].radio 	lossRate:min 	0
attr interpolationmode  backward-sample-hold
attr title  "packet loss rate, min"
scalar hierarchical.gw[3].wlan[1].radio 	lossRate:max 	0.32
attr interpolationmode  backward-sample-hold
attr title  "packet loss rate, max"
scalar hierarchical.gw[3].wlan[1].radio 	lossRate:timeavg 	0.011633943807015
attr interpolationmode  backward-sample-hold
attr title  "packet loss rate, timeavg"
statistic hierarchical.gw[3].wlan[1].radio 	channelNo:histogram
field count 1
field mean 1
field stddev -nan
field sum 1
field sqrsum 1
field min 1
field max 1
attr interpolationmode  sample-hold
attr title  "channel no, histogram"
bin	-INF	0
bin	0	0
bin	1	1
bin	2	0
scalar hierarchical.gw[3].wlan[1].radio 	bitrate:min 	11000000
attr interpolationmode  sample-hold
attr title  "tx bitrate, min"
attr unit  bps
scalar hierarchical.gw[3].wlan[1].radio 	bitrate:max 	11000000
attr interpolationmode  sample-hold
attr title  "tx bitrate, max"
attr unit  bps
scalar hierarchical.gw[3].wlan[1].radio 	bitrate:timeavg 	11000000
attr interpolationmode  sample-hold
attr title  "tx bitrate, timeavg"
attr unit  bps
scalar hierarchical.gw[3].wlan[1].radio 	radioState:count 	610836
attr interpolationmode  sample-hold
attr title  "radio state (enum), count"
scalar hierarchical.gw[3].manetrouting 	OLSR_HNA_Messages_(Forwarded) 	600
scalar hierarchical.gw[3].manetrouting 	OLSR_TC_Messages_(Forwarded) 	3020
scalar hierarchical.gw[3].manetrouting 	OLSR_Total_HELLO 	514
scalar hierarchical.gw[3].manetrouting 	OLSR_Total_HNA_(originated) 	190
scalar hierarchical.gw[3].manetrouting 	OLSR_Total_TC 	177
scalar hierarchical.gw[3].manetrouting 	OLSR_Total_Messages_Sent 	4501
scalar hierarchical.gw[3].backbonemanetrouting 	OLSR_HNA_Messages_(Forwarded) 	0
scalar hierarchical.gw[3].backbonemanetrouting 	OLSR_TC_Messages_(Forwarded) 	584
scalar hierarchical.gw[3].backbonemanetrouting 	OLSR_Total_HELLO 	514
scalar hierarchical.gw[3].backbonemanetrouting 	OLSR_Total_HNA_(originated) 	0
scalar hierarchical.gw[3].backbonemanetrouting 	OLSR_Total_TC 	100
scalar hierarchical.gw[3].backbonemanetrouting 	OLSR_Total_Messages_Sent 	1198
scalar hierarchical.gw[3].udp 	droppedPkBadChecksum:count 	0
attr interpolationmode  none
attr title  "packets dropped (checksum error), count"
scalar hierarchical.gw[3].udp 	droppedPkWrongPort:count 	0
attr interpolationmode  none
attr title  "packets dropped (wrong port), count"
scalar hierarchical.gw[3].udp 	passedUpPk:count 	2032
attr interpolationmode  none
attr title  "packets passed up, count"
scalar hierarchical.gw[3].udp 	rcvdPk:count 	2032
attr interpolationmode  none
attr source  rcvdPk
attr title  "packets received, count"
scalar hierarchical.gw[3].udp 	rcvdPk:sum(packetBytes) 	158345
attr interpolationmode  none
attr source  rcvdPk
attr title  "packets received, sum(packetBytes)"
scalar hierarchical.gw[3].udp 	sentPk:count 	2162
attr interpolationmode  none
attr source  sentPk
attr title  "packets sent, count"
scalar hierarchical.gw[3].udp 	sentPk:sum(packetBytes) 	161380
attr interpolationmode  none
attr source  sentPk
attr title  "packets sent, sum(packetBytes)"
scalar hierarchical.gw[3].pingApp[0] 	numOutOfOrderArrivals:last 	-nan
attr interpolationmode  none
attr title  "ping out-of-order arrivals, last"
scalar hierarchical.gw[3].pingApp[0] 	pingRxSeq:count 	0
attr interpolationmode  none
attr title  "ping rx seq, count"
scalar hierarchical.gw[3].pingApp[0] 	pingTxSeq:count 	0
attr interpolationmode  none
attr title  "ping tx seq, count"
scalar hierarchical.gw[3].pingApp[0] 	numLost:last 	-nan
attr interpolationmode  none
attr title  "pings lost, last"
statistic hierarchical.gw[3].pingApp[0] 	rtt:histogram
field count 0
field mean -nan
field stddev -nan
field sum 0
field sqrsum 0
field min -nan
field max -nan
attr interpolationmode  none
attr title  "ping round-trip time, histogram"
attr unit  s
bin	-INF	0
bin	-0.5	0
bin	-0.46666666666667	0
bin	-0.43333333333333	0
bin	-0.4	0
bin	-0.36666666666667	0
bin	-0.33333333333333	0
bin	-0.3	0
bin	-0.26666666666667	0
bin	-0.23333333333333	0
bin	-0.2	0
bin	-0.16666666666667	0
bin	-0.13333333333333	0
bin	-0.1	0
bin	-0.066666666666667	0
bin	-0.033333333333333	0
bin	0	0
bin	0.033333333333333	0
bin	0.066666666666667	0
bin	0.1	0
bin	0.13333333333333	0
bin	0.16666666666667	0
bin	0.2	0
bin	0.23333333333333	0
bin	0.26666666666667	0
bin	0.3	0
bin	0.33333333333333	0
bin	0.36666666666667	0
bin	0.4	0
bin	0.43333333333333	0
bin	0.46666666666667	0
bin	0.5	0
scalar hierarchical.gw[3].pingTestApp[0] 	numOutOfOrderArrivals:last 	-nan
attr interpolationmode  none
attr title  "ping out-of-order arrivals, last"
scalar hierarchical.gw[3].pingTestApp[0] 	pingRxSeq:count 	0
attr interpolationmode  none
attr title  "ping rx seq, count"
scalar hierarchical.gw[3].pingTestApp[0] 	pingTxSeq:count 	0
attr interpolationmode  none
attr title  "ping tx seq, count"
scalar hierarchical.gw[3].pingTestApp[0] 	numLost:last 	-nan
attr interpolationmode  none
attr title  "pings lost, last"
statistic hierarchical.gw[3].pingTestApp[0] 	rtt:histogram
field count 0
field mean -nan
field stddev -nan
field sum 0
field sqrsum 0
field min -nan
field max -nan
attr interpolationmode  none
attr title  "ping round-trip time, histogram"
attr unit  s
bin	-INF	0
bin	-0.5	0
bin	-0.46666666666667	0
bin	-0.43333333333333	0
bin	-0.4	0
bin	-0.36666666666667	0
bin	-0.33333333333333	0
bin	-0.3	0
bin	-0.26666666666667	0
bin	-0.23333333333333	0
bin	-0.2	0
bin	-0.16666666666667	0
bin	-0.13333333333333	0
bin	-0.1	0
bin	-0.066666666666667	0
bin	-0.033333333333333	0
bin	0	0
bin	0.033333333333333	0
bin	0.066666666666667	0
bin	0.1	0
bin	0.13333333333333	0
bin	0.16666666666667	0
bin	0.2	0
bin	0.23333333333333	0
bin	0.26666666666667	0
bin	0.3	0
bin	0.33333333333333	0
bin	0.36666666666667	0
bin	0.4	0
bin	0.43333333333333	0
bin	0.46666666666667	0
bin	0.5	0
scalar hierarchical.gw[4].networkLayer.arp 	failedARPResolution:count 	1
attr title  "ARP failed resolutions, count"
scalar hierarchical.gw[4].networkLayer.arp 	completedARPResolution:count 	137
attr title  "ARP completed resolutions, count"
scalar hierarchical.gw[4].networkLayer.arp 	initiatedARPResolution:count 	16
attr title  "ARP initiated resolutions, count"
scalar hierarchical.gw[4].networkLayer.arp 	sentReply:count 	20
attr title  "ARP replies sent, count"
scalar hierarchical.gw[4].networkLayer.arp 	sentReq:count 	19
attr title  "ARP request sent, count"
scalar hierarchical.gw[4].lo0.lo 	droppedPkBitError:count 	0
attr interpolationmode  none
attr source  dropPkBitError
attr title  "packets dropped/bit error, count"
scalar hierarchical.gw[4].lo0.lo 	droppedPkBitError:sum(packetBytes) 	0
attr interpolationmode  none
attr source  dropPkBitError
attr title  "packets dropped/bit error, sum(packetBytes)"
scalar hierarchical.gw[4].lo0.lo 	rcvdPkFromHL:count 	344
attr interpolationmode  none
attr source  packetReceivedFromUpper
attr title  "packets received from higher layer, count"
scalar hierarchical.gw[4].lo0.lo 	rcvdPkFromHL:sum(packetBytes) 	23811
attr interpolationmode  none
attr source  packetReceivedFromUpper
attr title  "packets received from higher layer, sum(packetBytes)"
scalar hierarchical.gw[4].lo0.lo 	passedUpPk:count 	344
attr interpolationmode  none
attr source  packetSentToUpper
attr title  "packets passed to higher layer, count"
scalar hierarchical.gw[4].lo0.lo 	passedUpPk:sum(packetBytes) 	23811
attr interpolationmode  none
attr source  packetSentToUpper
attr title  "packets passed to higher layer, sum(packetBytes)"
scalar hierarchical.gw[4].wlan[0].mgmt 	dataQueueLen:max 	2
attr interpolationmode  sample-hold
attr title  "data queue length, max"
scalar hierarchical.gw[4].wlan[0].mgmt 	dataQueueLen:timeavg 	0.00040722490333333
attr interpolationmode  sample-hold
attr title  "data queue length, timeavg"
scalar hierarchical.gw[4].wlan[0].mgmt 	dropPkByQueue:count 	0
attr interpolationmode  none
attr source  dropPkByQueue
attr title  "packets dropped by queue, count"
scalar hierarchical.gw[4].wlan[0].mgmt 	dropPkByQueue:sum(packetBytes) 	0
attr interpolationmode  none
attr source  dropPkByQueue
attr title  "packets dropped by queue, sum(packetBytes)"
scalar hierarchical.gw[4].wlan[0].mac 	"number of received packets" 	1132
scalar hierarchical.gw[4].wlan[0].mac 	"number of collisions" 	83451
scalar hierarchical.gw[4].wlan[0].mac 	"number of internal collisions" 	0
scalar hierarchical.gw[4].wlan[0].mac 	"number of retry for AC 0" 	3645
scalar hierarchical.gw[4].wlan[0].mac 	"sent and received bits" 	4850608
scalar hierarchical.gw[4].wlan[0].mac 	"sent packet within AC 0" 	2515
scalar hierarchical.gw[4].wlan[0].mac 	"sent in TXOP " 	0
scalar hierarchical.gw[4].wlan[0].mac 	"sentWithoutRetry AC 0" 	1514
scalar hierarchical.gw[4].wlan[0].mac 	"numGivenUp AC 0" 	128
scalar hierarchical.gw[4].wlan[0].mac 	"numDropped AC 0" 	0
scalar hierarchical.gw[4].wlan[0].mac 	rcvdPkFromHL:count 	3603
attr interpolationmode  none
attr source  packetReceivedFromUpper
attr title  "packets received from higher layer, count"
scalar hierarchical.gw[4].wlan[0].mac 	rcvdPkFromHL:sum(packetBytes) 	630646
attr interpolationmode  none
attr source  packetReceivedFromUpper
attr title  "packets received from higher layer, sum(packetBytes)"
scalar hierarchical.gw[4].wlan[0].mac 	passedUpPk:count 	13238
attr interpolationmode  none
attr source  packetSentToUpper
attr title  "packets passed to higher layer, count"
scalar hierarchical.gw[4].wlan[0].mac 	passedUpPk:sum(packetBytes) 	1822668
attr interpolationmode  none
attr source  packetSentToUpper
attr title  "packets passed to higher layer, sum(packetBytes)"
scalar hierarchical.gw[4].wlan[0].mac 	rcvdPkFromLL:count 	348642
attr interpolationmode  none
attr source  packetReceivedFromLower
attr title  "packets received from lower layer, count"
scalar hierarchical.gw[4].wlan[0].mac 	rcvdPkFromLL:sum(packetBytes) 	39916040
attr interpolationmode  none
attr source  packetReceivedFromLower
attr title  "packets received from lower layer, sum(packetBytes)"
scalar hierarchical.gw[4].wlan[0].mac 	sentDownPk:count 	8380
attr interpolationmode  none
attr source  packetSentToLower
attr title  "packets sent to lower layer, count"
scalar hierarchical.gw[4].wlan[0].mac 	sentDownPk:sum(packetBytes) 	1337364
attr interpolationmode  none
attr source  packetSentToLower
attr title  "packets sent to lower layer, sum(packetBytes)"
scalar hierarchical.gw[4].wlan[0].radio 	lossRate:min 	0
attr interpolationmode  backward-sample-hold
attr title  "packet loss rate, min"
scalar hierarchical.gw[4].wlan[0].radio 	lossRate:max 	0.84
attr interpolationmode  backward-sample-hold
attr title  "packet loss rate, max"
scalar hierarchical.gw[4].wlan[0].radio 	lossRate:timeavg 	0.20709811813593
attr interpolationmode  backward-sample-hold
attr title  "packet loss rate, timeavg"
statistic hierarchical.gw[4].wlan[0].radio 	channelNo:histogram
field count 1
field mean 0
field stddev -nan
field sum 0
field sqrsum 0
field min 0
field max 0
attr interpolationmode  sample-hold
attr title  "channel no, histogram"
bin	-INF	0
bin	-0.5	0
bin	-0.46666666666667	0
bin	-0.43333333333333	0
bin	-0.4	0
bin	-0.36666666666667	0
bin	-0.33333333333333	0
bin	-0.3	0
bin	-0.26666666666667	0
bin	-0.23333333333333	0
bin	-0.2	0
bin	-0.16666666666667	0
bin	-0.13333333333333	0
bin	-0.1	0
bin	-0.066666666666667	0
bin	-0.033333333333333	0
bin	0	1
bin	0.033333333333333	0
bin	0.066666666666667	0
bin	0.1	0
bin	0.13333333333333	0
bin	0.16666666666667	0
bin	0.2	0
bin	0.23333333333333	0
bin	0.26666666666667	0
bin	0.3	0
bin	0.33333333333333	0
bin	0.36666666666667	0
bin	0.4	0
bin	0.43333333333333	0
bin	0.46666666666667	0
bin	0.5	0
scalar hierarchical.gw[4].wlan[0].radio 	bitrate:min 	11000000
attr interpolationmode  sample-hold
attr title  "tx bitrate, min"
attr unit  bps
scalar hierarchical.gw[4].wlan[0].radio 	bitrate:max 	11000000
attr interpolationmode  sample-hold
attr title  "tx bitrate, max"
attr unit  bps
scalar hierarchical.gw[4].wlan[0].radio 	bitrate:timeavg 	11000000
attr interpolationmode  sample-hold
attr title  "tx bitrate, timeavg"
attr unit  bps
scalar hierarchical.gw[4].wlan[0].radio 	radioState:count 	791842
attr interpolationmode  sample-hold
attr title  "radio state (enum), count"
scalar hierarchical.gw[4].wlan[1].mgmt 	dataQueueLen:max 	6
attr interpolationmode  sample-hold
attr title  "data queue length, max"
scalar hierarchical.gw[4].wlan[1].mgmt 	dataQueueLen:timeavg 	0.0012632794644444
attr interpolationmode  sample-hold
attr title  "data queue length, timeavg"
scalar hierarchical.gw[4].wlan[1].mgmt 	dropPkByQueue:count 	0
attr interpolationmode  none
attr source  dropPkByQueue
attr title  "packets dropped by queue, count"
scalar hierarchical.gw[4].wlan[1].mgmt 	dropPkByQueue:sum(packetBytes) 	0
attr interpolationmode  none
attr source  dropPkByQueue
attr title  "packets dropped by queue, sum(packetBytes)"
scalar hierarchical.gw[4].wlan[1].mac 	"number of received packets" 	12082
scalar hierarchical.gw[4].wlan[1].mac 	"number of collisions" 	8289
scalar hierarchical.gw[4].wlan[1].mac 	"number of internal collisions" 	0
scalar hierarchical.gw[4].wlan[1].mac 	"number of retry for AC 0" 	2064
scalar hierarchical.gw[4].wlan[1].mac 	"sent and received bits" 	16723849
scalar hierarchical.gw[4].wlan[1].mac 	"sent packet within AC 0" 	10145
scalar hierarchical.gw[4].wlan[1].mac 	"sent in TXOP " 	0
scalar hierarchical.gw[4].wlan[1].mac 	"sentWithoutRetry AC 0" 	9279
scalar hierarchical.gw[4].wlan[1].mac 	"numGivenUp AC 0" 	22
scalar hierarchical.gw[4].wlan[1].mac 	"numDropped AC 0" 	0
scalar hierarchical.gw[4].wlan[1].mac 	rcvdPkFromHL:count 	11259
attr interpolationmode  none
attr source  packetReceivedFromUpper
attr title  "packets received from higher layer, count"
scalar hierarchical.gw[4].wlan[1].mac 	rcvdPkFromHL:sum(packetBytes) 	2094969
attr interpolationmode  none
attr source  packetReceivedFromUpper
attr title  "packets received from higher layer, sum(packetBytes)"
scalar hierarchical.gw[4].wlan[1].mac 	passedUpPk:count 	16583
attr interpolationmode  none
attr source  packetSentToUpper
attr title  "packets passed to higher layer, count"
scalar hierarchical.gw[4].wlan[1].mac 	passedUpPk:sum(packetBytes) 	2889917
attr interpolationmode  none
attr source  packetSentToUpper
attr title  "packets passed to higher layer, sum(packetBytes)"
scalar hierarchical.gw[4].wlan[1].mac 	rcvdPkFromLL:count 	235609
attr interpolationmode  none
attr source  packetReceivedFromLower
attr title  "packets received from lower layer, count"
scalar hierarchical.gw[4].wlan[1].mac 	rcvdPkFromLL:sum(packetBytes) 	26323356
attr interpolationmode  none
attr source  packetReceivedFromLower
attr title  "packets received from lower layer, sum(packetBytes)"
scalar hierarchical.gw[4].wlan[1].mac 	sentDownPk:count 	25405
attr interpolationmode  none
attr source  packetSentToLower
attr title  "packets sent to lower layer, count"
scalar hierarchical.gw[4].wlan[1].mac 	sentDownPk:sum(packetBytes) 	2630985
attr interpolationmode  none
attr source  packetSentToLower
attr title  "packets sent to lower layer, sum(packetBytes)"
scalar hierarchical.gw[4].wlan[1].radio 	lossRate:min 	0
attr interpolationmode  backward-sample-hold
attr title  "packet loss rate, min"
scalar hierarchical.gw[4].wlan[1].radio 	lossRate:max 	0.34
attr interpolationmode  backward-sample-hold
attr title  "packet loss rate, max"
scalar hierarchical.gw[4].wlan[1].radio 	lossRate:timeavg 	0.019752356171909
attr interpolationmode  backward-sample-hold
attr title  "packet loss rate, timeavg"
statistic hierarchical.gw[4].wlan[1].radio 	channelNo:histogram
field count 1
field mean 1
field stddev -nan
field sum 1
field sqrsum 1
field min 1
field max 1
attr interpolationmode  sample-hold
attr title  "channel no, histogram"
bin	-INF	0
bin	0	0
bin	1	1
bin	2	0
scalar hierarchical.gw[4].wlan[1].radio 	bitrate:min 	11000000
attr interpolationmode  sample-hold
attr title  "tx bitrate, min"
attr unit  bps
scalar hierarchical.gw[4].wlan[1].radio 	bitrate:max 	11000000
attr interpolationmode  sample-hold
attr title  "tx bitrate, max"
attr unit  bps
scalar hierarchical.gw[4].wlan[1].radio 	bitrate:timeavg 	11000000
attr interpolationmode  sample-hold
attr title  "tx bitrate, timeavg"
attr unit  bps
scalar hierarchical.gw[4].wlan[1].radio 	radioState:count 	521480
attr interpolationmode  sample-hold
attr title  "radio state (enum), count"
scalar hierarchical.gw[4].manetrouting 	OLSR_HNA_Messages_(Forwarded) 	484
scalar hierarchical.gw[4].manetrouting 	OLSR_TC_Messages_(Forwarded) 	2292
scalar hierarchical.gw[4].manetrouting 	OLSR_Total_HELLO 	514
scalar hierarchical.gw[4].manetrouting 	OLSR_Total_HNA_(originated) 	190
scalar hierarchical.gw[4].manetrouting 	OLSR_Total_TC 	24
scalar hierarchical.gw[4].manetrouting 	OLSR_Total_Messages_Sent 	3504
scalar hierarchical.gw[4].backbonemanetrouting 	OLSR_HNA_Messages_(Forwarded) 	0
scalar hierarchical.gw[4].backbonemanetrouting 	OLSR_TC_Messages_(Forwarded) 	510
scalar hierarchical.gw[4].backbonemanetrouting 	OLSR_Total_HELLO 	511
scalar hierarchical.gw[4].backbonemanetrouting 	OLSR_Total_HNA_(originated) 	0
scalar hierarchical.gw[4].backbonemanetrouting 	OLSR_Total_TC 	186
scalar hierarchical.gw[4].backbonemanetrouting 	OLSR_Total_Messages_Sent 	1207
scalar hierarchical.gw[4].udp 	droppedPkBadChecksum:count 	0
attr interpolationmode  none
attr title  "packets dropped (checksum error), count"
scalar hierarchical.gw[4].udp 	droppedPkWrongPort:count 	0
attr interpolationmode  none
attr title  "packets dropped (wrong port), count"
scalar hierarchical.gw[4].udp 	passedUpPk:count 	1909
attr interpolationmode  none
attr title  "packets passed up, count"
scalar hierarchical.gw[4].udp 	rcvdPk:count 	1909
attr interpolationmode  none
attr source  rcvdPk
attr title  "packets received, count"
scalar hierarchical.gw[4].udp 	rcvdPk:sum(packetBytes) 	145616
attr interpolationmode  none
attr source  rcvdPk
attr title  "packets received, sum(packetBytes)"
scalar hierarchical.gw[4].udp 	sentPk:count 	2015
attr interpolationmode  none
attr source  sentPk
attr title  "packets sent, count"
scalar hierarchical.gw[4].udp 	sentPk:sum(packetBytes) 	146487
attr interpolationmode  none
attr source  sentPk
attr title  "packets sent, sum(packetBytes)"
scalar hierarchical.gw[4].pingApp[0] 	numOutOfOrderArrivals:last 	-nan
attr interpolationmode  none
attr title  "ping out-of-order arrivals, last"
scalar hierarchical.gw[4].pingApp[0] 	pingRxSeq:count 	0
attr interpolationmode  none
attr title  "ping rx seq, count"
scalar hierarchical.gw[4].pingApp[0] 	pingTxSeq:count 	0
attr interpolationmode  none
attr title  "ping tx seq, count"
scalar hierarchical.gw[4].pingApp[0] 	numLost:last 	-nan
attr interpolationmode  none
attr title  "pings lost, last"
statistic hierarchical.gw[4].pingApp[0] 	rtt:histogram
field count 0
field mean -nan
field stddev -nan
field sum 0
field sqrsum 0
field min -nan
field max -nan
attr interpolationmode  none
attr title  "ping round-trip time, histogram"
attr unit  s
bin	-INF	0
bin	-0.5	0
bin	-0.46666666666667	0
bin	-0.43333333333333	0
bin	-0.4	0
bin	-0.36666666666667	0
bin	-0.33333333333333	0
bin	-0.3	0
bin	-0.26666666666667	0
bin	-0.23333333333333	0
bin	-0.2	0
bin	-0.16666666666667	0
bin	-0.13333333333333	0
bin	-0.1	0
bin	-0.066666666666667	0
bin	-0.033333333333333	0
bin	0	0
bin	0.033333333333333	0
bin	0.066666666666667	0
bin	0.1	0
bin	0.13333333333333	0
bin	0.16666666666667	0
bin	0.2	0
bin	0.23333333333333	0
bin	0.26666666666667	0
bin	0.3	0
bin	0.33333333333333	0
bin	0.36666666666667	0
bin	0.4	0
bin	0.43333333333333	0
bin	0.46666666666667	0
bin	0.5	0
scalar hierarchical.gw[4].pingTestApp[0] 	numOutOfOrderArrivals:last 	-nan
attr interpolationmode  none
attr title  "ping out-of-order arrivals, last"
scalar hierarchical.gw[4].pingTestApp[0] 	pingRxSeq:count 	0
attr interpolationmode  none
attr title  "ping rx seq, count"
scalar hierarchical.gw[4].pingTestApp[0] 	pingTxSeq:count 	0
attr interpolationmode  none
attr title  "ping tx seq, count"
scalar hierarchical.gw[4].pingTestApp[0] 	numLost:last 	-nan
attr interpolationmode  none
attr title  "pings lost, last"
statistic hierarchical.gw[4].pingTestApp[0] 	rtt:histogram
field count 0
field mean -nan
field stddev -nan
field sum 0
field sqrsum 0
field min -nan
field max -nan
attr interpolationmode  none
attr title  "ping round-trip time, histogram"
attr unit  s
bin	-INF	0
bin	-0.5	0
bin	-0.46666666666667	0
bin	-0.43333333333333	0
bin	-0.4	0
bin	-0.36666666666667	0
bin	-0.33333333333333	0
bin	-0.3	0
bin	-0.26666666666667	0
bin	-0.23333333333333	0
bin	-0.2	0
bin	-0.16666666666667	0
bin	-0.13333333333333	0
bin	-0.1	0
bin	-0.066666666666667	0
bin	-0.033333333333333	0
bin	0	0
bin	0.033333333333333	0
bin	0.066666666666667	0
bin	0.1	0
bin	0.13333333333333	0
bin	0.16666666666667	0
bin	0.2	0
bin	0.23333333333333	0
bin	0.26666666666667	0
bin	0.3	0
bin	0.33333333333333	0
bin	0.36666666666667	0
bin	0.4	0
bin	0.43333333333333	0
bin	0.46666666666667	0
bin	0.5	0
scalar hierarchical.gw[5].networkLayer.arp 	failedARPResolution:count 	0
attr title  "ARP failed resolutions, count"
scalar hierarchical.gw[5].networkLayer.arp 	completedARPResolution:count 	97
attr title  "ARP completed resolutions, count"
scalar hierarchical.gw[5].networkLayer.arp 	initiatedARPResolution:count 	15
attr title  "ARP initiated resolutions, count"
scalar hierarchical.gw[5].networkLayer.arp 	sentReply:count 	16
attr title  "ARP replies sent, count"
scalar hierarchical.gw[5].networkLayer.arp 	sentReq:count 	17
attr title  "ARP request sent, count"
scalar hierarchical.gw[5].lo0.lo 	droppedPkBitError:count 	0
attr interpolationmode  none
attr source  dropPkBitError
attr title  "packets dropped/bit error, count"
scalar hierarchical.gw[5].lo0.lo 	droppedPkBitError:sum(packetBytes) 	0
attr interpolationmode  none
attr source  dropPkBitError
attr title  "packets dropped/bit error, sum(packetBytes)"
scalar hierarchical.gw[5].lo0.lo 	rcvdPkFromHL:count 	213
attr interpolationmode  none
attr source  packetReceivedFromUpper
attr title  "packets received from higher layer, count"
scalar hierarchical.gw[5].lo0.lo 	rcvdPkFromHL:sum(packetBytes) 	13967
attr interpolationmode  none
attr source  packetReceivedFromUpper
attr title  "packets received from higher layer, sum(packetBytes)"
scalar hierarchical.gw[5].lo0.lo 	passedUpPk:count 	213
attr interpolationmode  none
attr source  packetSentToUpper
attr title  "packets passed to higher layer, count"
scalar hierarchical.gw[5].lo0.lo 	passedUpPk:sum(packetBytes) 	13967
attr interpolationmode  none
attr source  packetSentToUpper
attr title  "packets passed to higher layer, sum(packetBytes)"
scalar hierarchical.gw[5].wlan[0].mgmt 	dataQueueLen:max 	1
attr interpolationmode  sample-hold
attr title  "data queue length, max"
scalar hierarchical.gw[5].wlan[0].mgmt 	dataQueueLen:timeavg 	4.520173e-05
attr interpolationmode  sample-hold
attr title  "data queue length, timeavg"
scalar hierarchical.gw[5].wlan[0].mgmt 	dropPkByQueue:count 	0
attr interpolationmode  none
attr source  dropPkByQueue
attr title  "packets dropped by queue, count"
scalar hierarchical.gw[5].wlan[0].mgmt 	dropPkByQueue:sum(packetBytes) 	0
attr interpolationmode  none
attr source  dropPkByQueue
attr title  "packets dropped by queue, sum(packetBytes)"
scalar hierarchical.gw[5].wlan[0].mac 	"number of received packets" 	219
scalar hierarchical.gw[5].wlan[0].mac 	"number of collisions" 	8255
scalar hierarchical.gw[5].wlan[0].mac 	"number of internal collisions" 	0
scalar hierarchical.gw[5].wlan[0].mac 	"number of retry for AC 0" 	2730
scalar hierarchical.gw[5].wlan[0].mac 	"sent and received bits" 	3578416
scalar hierarchical.gw[5].wlan[0].mac 	"sent packet within AC 0" 	1792
scalar hierarchical.gw[5].wlan[0].mac 	"sent in TXOP " 	0
scalar hierarchical.gw[5].wlan[0].mac 	"sentWithoutRetry AC 0" 	1105
scalar hierarchical.gw[5].wlan[0].mac 	"numGivenUp AC 0" 	134
scalar hierarchical.gw[5].wlan[0].mac 	"numDropped AC 0" 	0
scalar hierarchical.gw[5].wlan[0].mac 	rcvdPkFromHL:count 	2877
attr interpolationmode  none
attr source  packetReceivedFromUpper
attr title  "packets received from higher layer, count"
scalar hierarchical.gw[5].wlan[0].mac 	rcvdPkFromHL:sum(packetBytes) 	472762
attr interpolationmode  none
attr source  packetReceivedFromUpper
attr title  "packets received from higher layer, sum(packetBytes)"
scalar hierarchical.gw[5].wlan[0].mac 	passedUpPk:count 	4780
attr interpolationmode  none
attr source  packetSentToUpper
attr title  "packets passed to higher layer, count"
scalar hierarchical.gw[5].wlan[0].mac 	passedUpPk:sum(packetBytes) 	611340
attr interpolationmode  none
attr source  packetSentToUpper
attr title  "packets passed to higher layer, sum(packetBytes)"
scalar hierarchical.gw[5].wlan[0].mac 	rcvdPkFromLL:count 	57668
attr interpolationmode  none
attr source  packetReceivedFromLower
attr title  "packets received from lower layer, count"
[...]
attr title  "packets passed to higher layer, sum(packetBytes)"
scalar hierarchical.host[39].wlan[0].mgmt 	dataQueueLen:max 	3
attr interpolationmode  sample-hold
attr title  "data queue length, max"
scalar hierarchical.host[39].wlan[0].mgmt 	dataQueueLen:timeavg 	0.00017679719777778
attr interpolationmode  sample-hold
attr title  "data queue length, timeavg"
scalar hierarchical.host[39].wlan[0].mgmt 	dropPkByQueue:count 	0
attr interpolationmode  none
attr source  dropPkByQueue
attr title  "packets dropped by queue, count"
scalar hierarchical.host[39].wlan[0].mgmt 	dropPkByQueue:sum(packetBytes) 	0
attr interpolationmode  none
attr source  dropPkByQueue
attr title  "packets dropped by queue, sum(packetBytes)"
scalar hierarchical.host[39].wlan[0].mac 	"number of received packets" 	5844
scalar hierarchical.host[39].wlan[0].mac 	"number of collisions" 	15119
scalar hierarchical.host[39].wlan[0].mac 	"number of internal collisions" 	0
scalar hierarchical.host[39].wlan[0].mac 	"number of retry for AC 0" 	2717
scalar hierarchical.host[39].wlan[0].mac 	"sent and received bits" 	10729744
scalar hierarchical.host[39].wlan[0].mac 	"sent packet within AC 0" 	6435
scalar hierarchical.host[39].wlan[0].mac 	"sent in TXOP " 	0
scalar hierarchical.host[39].wlan[0].mac 	"sentWithoutRetry AC 0" 	5628
scalar hierarchical.host[39].wlan[0].mac 	"numGivenUp AC 0" 	158
scalar hierarchical.host[39].wlan[0].mac 	"numDropped AC 0" 	0
scalar hierarchical.host[39].wlan[0].mac 	rcvdPkFromHL:count 	7525
attr interpolationmode  none
attr source  packetReceivedFromUpper
attr title  "packets received from higher layer, count"
scalar hierarchical.host[39].wlan[0].mac 	rcvdPkFromHL:sum(packetBytes) 	1371118
attr interpolationmode  none
attr source  packetReceivedFromUpper
attr title  "packets received from higher layer, sum(packetBytes)"
scalar hierarchical.host[39].wlan[0].mac 	passedUpPk:count 	21919
attr interpolationmode  none
attr source  packetSentToUpper
attr title  "packets passed to higher layer, count"
scalar hierarchical.host[39].wlan[0].mac 	passedUpPk:sum(packetBytes) 	3297086
attr interpolationmode  none
attr source  packetSentToUpper
attr title  "packets passed to higher layer, sum(packetBytes)"
scalar hierarchical.host[39].wlan[0].mac 	rcvdPkFromLL:count 	268809
attr interpolationmode  none
attr source  packetReceivedFromLower
attr title  "packets received from lower layer, count"
scalar hierarchical.host[39].wlan[0].mac 	rcvdPkFromLL:sum(packetBytes) 	31195822
attr interpolationmode  none
attr source  packetReceivedFromLower
attr title  "packets received from lower layer, sum(packetBytes)"
scalar hierarchical.host[39].wlan[0].mac 	sentDownPk:count 	16086
attr interpolationmode  none
attr source  packetSentToLower
attr title  "packets sent to lower layer, count"
scalar hierarchical.host[39].wlan[0].mac 	sentDownPk:sum(packetBytes) 	1967364
attr interpolationmode  none
attr source  packetSentToLower
attr title  "packets sent to lower layer, sum(packetBytes)"
scalar hierarchical.host[39].wlan[0].radio 	lossRate:min 	0
attr interpolationmode  backward-sample-hold
attr title  "packet loss rate, min"
scalar hierarchical.host[39].wlan[0].radio 	lossRate:max 	0.46
attr interpolationmode  backward-sample-hold
attr title  "packet loss rate, max"
scalar hierarchical.host[39].wlan[0].radio 	lossRate:timeavg 	0.045781616327546
attr interpolationmode  backward-sample-hold
attr title  "packet loss rate, timeavg"
statistic hierarchical.host[39].wlan[0].radio 	channelNo:histogram
field count 1
field mean 0
field stddev -nan
field sum 0
field sqrsum 0
field min 0
field max 0
attr interpolationmode  sample-hold
attr title  "channel no, histogram"
bin	-INF	0
bin	-0.5	0
bin	-0.46666666666667	0
bin	-0.43333333333333	0
bin	-0.4	0
bin	-0.36666666666667	0
bin	-0.33333333333333	0
bin	-0.3	0
bin	-0.26666666666667	0
bin	-0.23333333333333	0
bin	-0.2	0
bin	-0.16666666666667	0
bin	-0.13333333333333	0
bin	-0.1	0
bin	-0.066666666666667	0
bin	-0.033333333333333	0
bin	0	1
bin	0.033333333333333	0
bin	0.066666666666667	0
bin	0.1	0
bin	0.13333333333333	0
bin	0.16666666666667	0
bin	0.2	0
bin	0.23333333333333	0
bin	0.26666666666667	0
bin	0.3	0
bin	0.33333333333333	0
bin	0.36666666666667	0
bin	0.4	0
bin	0.43333333333333	0
bin	0.46666666666667	0
bin	0.5	0
scalar hierarchical.host[39].wlan[0].radio 	bitrate:min 	11000000
attr interpolationmode  sample-hold
attr title  "tx bitrate, min"
attr unit  bps
scalar hierarchical.host[39].wlan[0].radio 	bitrate:max 	11000000
attr interpolationmode  sample-hold
attr title  "tx bitrate, max"
attr unit  bps
scalar hierarchical.host[39].wlan[0].radio 	bitrate:timeavg 	11000000
attr interpolationmode  sample-hold
attr title  "tx bitrate, timeavg"
attr unit  bps
scalar hierarchical.host[39].wlan[0].radio 	radioState:count 	599862
attr interpolationmode  sample-hold
attr title  "radio state (enum), count"
scalar hierarchical.host[39].pingApp[0] 	numOutOfOrderArrivals:last 	-nan
attr interpolationmode  none
attr title  "ping out-of-order arrivals, last"
scalar hierarchical.host[39].pingApp[0] 	pingRxSeq:count 	0
attr interpolationmode  none
attr title  "ping rx seq, count"
scalar hierarchical.host[39].pingApp[0] 	pingTxSeq:count 	0
attr interpolationmode  none
attr title  "ping tx seq, count"
scalar hierarchical.host[39].pingApp[0] 	numLost:last 	-nan
attr interpolationmode  none
attr title  "pings lost, last"
statistic hierarchical.host[39].pingApp[0] 	rtt:histogram
field count 0
field mean -nan
field stddev -nan
field sum 0
field sqrsum 0
field min -nan
field max -nan
attr interpolationmode  none
attr title  "ping round-trip time, histogram"
attr unit  s
bin	-INF	0
bin	-0.5	0
bin	-0.46666666666667	0
bin	-0.43333333333333	0
bin	-0.4	0
bin	-0.36666666666667	0
bin	-0.33333333333333	0
bin	-0.3	0
bin	-0.26666666666667	0
bin	-0.23333333333333	0
bin	-0.2	0
bin	-0.16666666666667	0
bin	-0.13333333333333	0
bin	-0.1	0
bin	-0.066666666666667	0
bin	-0.033333333333333	0
bin	0	0
bin	0.033333333333333	0
bin	0.066666666666667	0
bin	0.1	0
bin	0.13333333333333	0
bin	0.16666666666667	0
bin	0.2	0
bin	0.23333333333333	0
bin	0.26666666666667	0
bin	0.3	0
bin	0.33333333333333	0
bin	0.36666666666667	0
bin	0.4	0
bin	0.43333333333333	0
bin	0.46666666666667	0
bin	0.5	0
scalar hierarchical.host[39].pingTestApp[0] 	"Pings sent" 	2302
scalar hierarchical.host[39].pingTestApp[0] 	"ping loss rate (%)" 	36.794092093831
scalar hierarchical.host[39].pingTestApp[0] 	"ping out-of-order rate (%)" 	0.34752389226759
scalar hierarchical.host[39].pingTestApp[0] 	numOutOfOrderArrivals:last 	-nan
attr interpolationmode  none
attr title  "ping out-of-order arrivals, last"
scalar hierarchical.host[39].pingTestApp[0] 	pingRxSeq:count 	1455
attr interpolationmode  none
attr title  "ping rx seq, count"
scalar hierarchical.host[39].pingTestApp[0] 	pingTxSeq:count 	2302
attr interpolationmode  none
attr title  "ping tx seq, count"
scalar hierarchical.host[39].pingTestApp[0] 	numLost:last 	847
attr interpolationmode  none
attr title  "pings lost, last"
statistic hierarchical.host[39].pingTestApp[0] 	rtt:histogram
field count 1455
field mean 0.017832131280412
field stddev 0.073961124413132
field sum 25.945751013
field sqrsum 8.4164085203899
field min 0.001076268
field max 1.285901326
attr interpolationmode  none
attr title  "ping round-trip time, histogram"
attr unit  s
bin	-INF	0
bin	-0.007079413	0
bin	-0.0056919143333333	0
bin	-0.0043044156666667	0
bin	-0.002916917	0
bin	-0.0015294183333333	0
bin	-0.00014191966666667	122
bin	0.001245579	116
bin	0.0026330776666667	173
bin	0.0040205763333333	211
bin	0.005408075	151
bin	0.0067955736666667	98
bin	0.0081830723333333	66
bin	0.009570571	59
bin	0.010958069666667	55
bin	0.012345568333333	41
bin	0.013733067	32
bin	0.015120565666667	26
bin	0.016508064333333	24
bin	0.017895563	26
bin	0.019283061666667	27
bin	0.020670560333333	16
bin	0.022058059	16
bin	0.023445557666667	10
bin	0.024833056333333	18
bin	0.026220555	13
bin	0.027608053666667	19
bin	0.028995552333333	1
bin	0.030383051	5
bin	0.031770549666667	10
bin	0.033158048333333	10
bin	0.034545547	110
scalar hierarchical.host[39].manetrouting 	OLSR_HNA_Messages_(Forwarded) 	666
scalar hierarchical.host[39].manetrouting 	OLSR_TC_Messages_(Forwarded) 	2018
scalar hierarchical.host[39].manetrouting 	OLSR_Total_HELLO 	512
scalar hierarchical.host[39].manetrouting 	OLSR_Total_HNA_(originated) 	0
scalar hierarchical.host[39].manetrouting 	OLSR_Total_TC 	49
scalar hierarchical.host[39].manetrouting 	OLSR_Total_Messages_Sent 	3245
scalar hierarchical.globalObserver.globalStatistics 	"GlobalStatistics: Simulation Time" 	900
scalar hierarchical.globalObserver.globalStatistics 	"BaseApp (bootstrapList): Received Bytes/s from Overlay.mean" 	0
scalar hierarchical.globalObserver.globalStatistics 	"BaseApp (bootstrapList): Received Bytes/s from UDP.mean" 	0
scalar hierarchical.globalObserver.globalStatistics 	"BaseApp (bootstrapList): Received Messages/s from Overlay.mean" 	0
scalar hierarchical.globalObserver.globalStatistics 	"BaseApp (bootstrapList): Received Messages/s from UDP.mean" 	0
scalar hierarchical.globalObserver.globalStatistics 	"BaseApp (bootstrapList): Sent Bytes/s to Overlay.mean" 	0
scalar hierarchical.globalObserver.globalStatistics 	"BaseApp (bootstrapList): Sent Bytes/s to UDP.mean" 	0
scalar hierarchical.globalObserver.globalStatistics 	"BaseApp (bootstrapList): Sent Messages/s to Overlay.mean" 	0
scalar hierarchical.globalObserver.globalStatistics 	"BaseApp (bootstrapList): Sent Messages/s to UDP.mean" 	0
scalar hierarchical.globalObserver.globalStatistics 	"BaseApp (dht): Received Bytes/s from Overlay.mean" 	81.678125
scalar hierarchical.globalObserver.globalStatistics 	"BaseApp (dht): Received Bytes/s from UDP.mean" 	0
scalar hierarchical.globalObserver.globalStatistics 	"BaseApp (dht): Received Messages/s from Overlay.mean" 	1.19359375
scalar hierarchical.globalObserver.globalStatistics 	"BaseApp (dht): Received Messages/s from UDP.mean" 	0
scalar hierarchical.globalObserver.globalStatistics 	"BaseApp (dht): Sent Bytes/s to Overlay.mean" 	91.0003125
scalar hierarchical.globalObserver.globalStatistics 	"BaseApp (dht): Sent Bytes/s to UDP.mean" 	0
scalar hierarchical.globalObserver.globalStatistics 	"BaseApp (dht): Sent Messages/s to Overlay.mean" 	1.31984375
scalar hierarchical.globalObserver.globalStatistics 	"BaseApp (dht): Sent Messages/s to UDP.mean" 	0
scalar hierarchical.globalObserver.globalStatistics 	"BaseApp (dht4routing): Received Bytes/s from Overlay.mean" 	0
scalar hierarchical.globalObserver.globalStatistics 	"BaseApp (dht4routing): Received Bytes/s from UDP.mean" 	0
scalar hierarchical.globalObserver.globalStatistics 	"BaseApp (dht4routing): Received Messages/s from Overlay.mean" 	0
scalar hierarchical.globalObserver.globalStatistics 	"BaseApp (dht4routing): Received Messages/s from UDP.mean" 	0
scalar hierarchical.globalObserver.globalStatistics 	"BaseApp (dht4routing): Sent Bytes/s to Overlay.mean" 	0
scalar hierarchical.globalObserver.globalStatistics 	"BaseApp (dht4routing): Sent Bytes/s to UDP.mean" 	0
scalar hierarchical.globalObserver.globalStatistics 	"BaseApp (dht4routing): Sent Messages/s to Overlay.mean" 	0
scalar hierarchical.globalObserver.globalStatistics 	"BaseApp (dht4routing): Sent Messages/s to UDP.mean" 	0
scalar hierarchical.globalObserver.globalStatistics 	"BaseApp (neighborCache): Received Bytes/s from Overlay.mean" 	0
scalar hierarchical.globalObserver.globalStatistics 	"BaseApp (neighborCache): Received Bytes/s from UDP.mean" 	0
scalar hierarchical.globalObserver.globalStatistics 	"BaseApp (neighborCache): Received Messages/s from Overlay.mean" 	0
scalar hierarchical.globalObserver.globalStatistics 	"BaseApp (neighborCache): Received Messages/s from UDP.mean" 	0
scalar hierarchical.globalObserver.globalStatistics 	"BaseApp (neighborCache): Sent Bytes/s to Overlay.mean" 	0
scalar hierarchical.globalObserver.globalStatistics 	"BaseApp (neighborCache): Sent Bytes/s to UDP.mean" 	0
scalar hierarchical.globalObserver.globalStatistics 	"BaseApp (neighborCache): Sent Messages/s to Overlay.mean" 	0
scalar hierarchical.globalObserver.globalStatistics 	"BaseApp (neighborCache): Sent Messages/s to UDP.mean" 	0
scalar hierarchical.globalObserver.globalStatistics 	"BaseApp (tier3): Received Bytes/s from Overlay.mean" 	0
scalar hierarchical.globalObserver.globalStatistics 	"BaseApp (tier3): Received Bytes/s from UDP.mean" 	0
scalar hierarchical.globalObserver.globalStatistics 	"BaseApp (tier3): Received Messages/s from Overlay.mean" 	0
scalar hierarchical.globalObserver.globalStatistics 	"BaseApp (tier3): Received Messages/s from UDP.mean" 	0
scalar hierarchical.globalObserver.globalStatistics 	"BaseApp (tier3): Sent Bytes/s to Overlay.mean" 	0
scalar hierarchical.globalObserver.globalStatistics 	"BaseApp (tier3): Sent Bytes/s to UDP.mean" 	0
scalar hierarchical.globalObserver.globalStatistics 	"BaseApp (tier3): Sent Messages/s to Overlay.mean" 	0
scalar hierarchical.globalObserver.globalStatistics 	"BaseApp (tier3): Sent Messages/s to UDP.mean" 	0
scalar hierarchical.globalObserver.globalStatistics 	"BaseOverlay: Dropped Bytes/s.mean" 	0.779375
scalar hierarchical.globalObserver.globalStatistics 	"BaseOverlay: Dropped Messages/s.mean" 	0.0090625
scalar hierarchical.globalObserver.globalStatistics 	"BaseOverlay: Forwarded App Data Bytes/s.mean" 	0
scalar hierarchical.globalObserver.globalStatistics 	"BaseOverlay: Forwarded App Data Messages/s.mean" 	0
scalar hierarchical.globalObserver.globalStatistics 	"BaseOverlay: Forwarded App Lookup Bytes/s.mean" 	0
scalar hierarchical.globalObserver.globalStatistics 	"BaseOverlay: Forwarded App Lookup Messages/s.mean" 	0
scalar hierarchical.globalObserver.globalStatistics 	"BaseOverlay: Forwarded Maintenance Bytes/s.mean" 	0
scalar hierarchical.globalObserver.globalStatistics 	"BaseOverlay: Forwarded Maintenance Messages/s.mean" 	0
scalar hierarchical.globalObserver.globalStatistics 	"BaseOverlay: Forwarded Total Bytes/s.mean" 	0
scalar hierarchical.globalObserver.globalStatistics 	"BaseOverlay: Forwarded Total Messages/s.mean" 	0
scalar hierarchical.globalObserver.globalStatistics 	"BaseOverlay: Join Retries.mean" 	1
scalar hierarchical.globalObserver.globalStatistics 	"BaseOverlay: Measured Session Time.mean" 	900
scalar hierarchical.globalObserver.globalStatistics 	"BaseOverlay: Received App Data Bytes/s.mean" 	81.69875
scalar hierarchical.globalObserver.globalStatistics 	"BaseOverlay: Received App Data Messages/s.mean" 	1.1225
scalar hierarchical.globalObserver.globalStatistics 	"BaseOverlay: Received App Lookup Bytes/s.mean" 	36.93703125
scalar hierarchical.globalObserver.globalStatistics 	"BaseOverlay: Received App Lookup Messages/s.mean" 	0.48859375
scalar hierarchical.globalObserver.globalStatistics 	"BaseOverlay: Received Maintenance Bytes/s.mean" 	38.81875
scalar hierarchical.globalObserver.globalStatistics 	"BaseOverlay: Received Maintenance Messages/s.mean" 	0.71328125
scalar hierarchical.globalObserver.globalStatistics 	"BaseOverlay: Received Total Bytes/s.mean" 	157.45453125
scalar hierarchical.globalObserver.globalStatistics 	"BaseOverlay: Received Total Messages/s.mean" 	2.324375
scalar hierarchical.globalObserver.globalStatistics 	"BaseOverlay: Sent App Data Bytes/s.mean" 	87.94859375
scalar hierarchical.globalObserver.globalStatistics 	"BaseOverlay: Sent App Data Messages/s.mean" 	1.17765625
scalar hierarchical.globalObserver.globalStatistics 	"BaseOverlay: Sent App Lookup Bytes/s.mean" 	37.215
scalar hierarchical.globalObserver.globalStatistics 	"BaseOverlay: Sent App Lookup Messages/s.mean" 	0.4928125
scalar hierarchical.globalObserver.globalStatistics 	"BaseOverlay: Sent FailedNode Bytes/s.mean" 	0
scalar hierarchical.globalObserver.globalStatistics 	"BaseOverlay: Sent FailedNode Messages/s.mean" 	0
scalar hierarchical.globalObserver.globalStatistics 	"BaseOverlay: Sent FailedNodeResponse Bytes/s.mean" 	0
scalar hierarchical.globalObserver.globalStatistics 	"BaseOverlay: Sent FailedNodeResponse Messages/s.mean" 	0
scalar hierarchical.globalObserver.globalStatistics 	"BaseOverlay: Sent FindNode Bytes/s.mean" 	16.40546875
scalar hierarchical.globalObserver.globalStatistics 	"BaseOverlay: Sent FindNode Messages/s.mean" 	0.29828125
scalar hierarchical.globalObserver.globalStatistics 	"BaseOverlay: Sent FindNodeResponse Bytes/s.mean" 	26.21078125
scalar hierarchical.globalObserver.globalStatistics 	"BaseOverlay: Sent FindNodeResponse Messages/s.mean" 	0.28953125
scalar hierarchical.globalObserver.globalStatistics 	"BaseOverlay: Sent Maintenance Bytes/s.mean" 	39.3965625
scalar hierarchical.globalObserver.globalStatistics 	"BaseOverlay: Sent Maintenance Messages/s.mean" 	0.725625
scalar hierarchical.globalObserver.globalStatistics 	"BaseOverlay: Sent Ping Bytes/s.mean" 	6.24
scalar hierarchical.globalObserver.globalStatistics 	"BaseOverlay: Sent Ping Messages/s.mean" 	0.195
scalar hierarchical.globalObserver.globalStatistics 	"BaseOverlay: Sent Ping Response Bytes/s.mean" 	6.2
scalar hierarchical.globalObserver.globalStatistics 	"BaseOverlay: Sent Ping Response Messages/s.mean" 	0.19375
scalar hierarchical.globalObserver.globalStatistics 	"BaseOverlay: Sent Total Bytes/s.mean" 	164.56015625
scalar hierarchical.globalObserver.globalStatistics 	"BaseOverlay: Sent Total Messages/s.mean" 	2.39609375
scalar hierarchical.globalObserver.globalStatistics 	"Chord: Sent FIX_FINGERS Bytes/s.mean" 	3.3325
scalar hierarchical.globalObserver.globalStatistics 	"Chord: Sent FIX_FINGERS Messages/s.mean" 	0.03875
scalar hierarchical.globalObserver.globalStatistics 	"Chord: Sent JOIN Bytes/s.mean" 	0
scalar hierarchical.globalObserver.globalStatistics 	"Chord: Sent JOIN Messages/s.mean" 	0
scalar hierarchical.globalObserver.globalStatistics 	"Chord: Sent NEWSUCCESSORHINT Bytes/s.mean" 	0
scalar hierarchical.globalObserver.globalStatistics 	"Chord: Sent NEWSUCCESSORHINT Messages/s.mean" 	0
scalar hierarchical.globalObserver.globalStatistics 	"Chord: Sent NOTIFY Bytes/s.mean" 	13.6065625
scalar hierarchical.globalObserver.globalStatistics 	"Chord: Sent NOTIFY Messages/s.mean" 	0.1
scalar hierarchical.globalObserver.globalStatistics 	"Chord: Sent STABILIZE Bytes/s.mean" 	4.61625
scalar hierarchical.globalObserver.globalStatistics 	"Chord: Sent STABILIZE Messages/s.mean" 	0.103125
scalar hierarchical.globalObserver.globalStatistics 	"DHT4Routing: Failed GET Requests/s.mean" 	0.0025
scalar hierarchical.globalObserver.globalStatistics 	"DHT4Routing: Failed PUT Requests/s.mean" 	0.0003125
scalar hierarchical.globalObserver.globalStatistics 	"DHT4Routing: GET Latency (s).mean" 	0.10843274961378
scalar hierarchical.globalObserver.globalStatistics 	"DHT4Routing: GET Success Ratio.mean" 	0.97127322665455
scalar hierarchical.globalObserver.globalStatistics 	"DHT4Routing: PUT Latency (s).mean" 	0.016765358271523
scalar hierarchical.globalObserver.globalStatistics 	"DHT4Routing: Sent GET Messages/s.mean" 	0.0975
scalar hierarchical.globalObserver.globalStatistics 	"DHT4Routing: Sent PUT Messages/s.mean" 	0.0475
scalar hierarchical.globalObserver.globalStatistics 	"DHT4Routing: Sent Total Messages/s.mean" 	0.145
scalar hierarchical.globalObserver.globalStatistics 	"DHT4Routing: Successful GET Requests/s.mean" 	0.07890625
scalar hierarchical.globalObserver.globalStatistics 	"DHT4Routing: Successful PUT Requests/s.mean" 	0.0471875
scalar hierarchical.globalObserver.globalStatistics 	"DHT: Sent Maintenance Bytes/s.mean" 	5.9259375
scalar hierarchical.globalObserver.globalStatistics 	"DHT: Sent Maintenance Messages/s.mean" 	0.05234375
scalar hierarchical.globalObserver.globalStatistics 	"DHT: Sent Normal Bytes/s.mean" 	85.074375
scalar hierarchical.globalObserver.globalStatistics 	"DHT: Sent Normal Messages/s.mean" 	1.2675
scalar hierarchical.globalObserver.globalStatistics 	"Vector: GlobalDhtTestMap: Number of stored DHT entries.mean" 	47.1625
scalar hierarchical.globalObserver.globalStatistics 	"Vector: GlobalNodeList: Number of nodes.mean" 	8
