version 2
run ThreeClusters-0-20190329-14:40:54-2817
attr configname ThreeClusters
attr datetime 20190329-14:40:54
attr experiment ThreeClusters
attr inifile DHT-based_mobile_scenarios.ini
attr iterationvars ""
attr iterationvars2 $repetition=0
attr measurement ""
attr network p2psipmanet.simulations.hierarchical
attr processid 2817
attr repetition 0
attr replication #0
attr resultdir results
attr runnumber 0
attr seedset 772087

scalar hierarchical.gw[0].networkLayer.arp 	failedARPResolution:count 	0
attr title  "ARP failed resolutions, count"
scalar hierarchical.gw[0].networkLayer.arp 	completedARPResolution:count 	61
attr title  "ARP completed resolutions, count"
scalar hierarchical.gw[0].networkLayer.arp 	initiatedARPResolution:count 	2
attr title  "ARP initiated resolutions, count"
scalar hierarchical.gw[0].networkLayer.arp 	sentReply:count 	20
attr title  "ARP replies sent, count"
scalar hierarchical.gw[0].networkLayer.arp 	sentReq:count 	2
attr title  "ARP request sent, count"
scalar hierarchical.gw[0].lo0.lo 	droppedPkBitError:count 	0
attr interpolationmode  none
attr source  dropPkBitError
attr title  "packets dropped/bit error, count"
scalar hierarchical.gw[0].lo0.lo 	droppedPkBitError:sum(packetBytes) 	0
attr interpolationmode  none
attr source  dropPkBitError
attr title  "packets dropped/bit error, sum(packetBytes)"
scalar hierarchical.gw[0].lo0.lo 	rcvdPkFromHL:count 	1771
attr interpolationmode  none
attr source  packetReceivedFromUpper
attr title  "packets received from higher layer, count"
scalar hierarchical.gw[0].lo0.lo 	rcvdPkFromHL:sum(packetBytes) 	163066
attr interpolationmode  none
attr source  packetReceivedFromUpper
attr title  "packets received from higher layer, sum(packetBytes)"
scalar hierarchical.gw[0].lo0.lo 	passedUpPk:count 	1771
attr interpolationmode  none
attr source  packetSentToUpper
attr title  "packets passed to higher layer, count"
scalar hierarchical.gw[0].lo0.lo 	passedUpPk:sum(packetBytes) 	163066
attr interpolationmode  none
attr source  packetSentToUpper
attr title  "packets passed to higher layer, sum(packetBytes)"
scalar hierarchical.gw[0].wlan[0].mgmt 	dataQueueLen:max 	0
attr interpolationmode  sample-hold
attr title  "data queue length, max"
scalar hierarchical.gw[0].wlan[0].mgmt 	dataQueueLen:timeavg 	0
attr interpolationmode  sample-hold
attr title  "data queue length, timeavg"
scalar hierarchical.gw[0].wlan[0].mgmt 	dropPkByQueue:count 	0
attr interpolationmode  none
attr source  dropPkByQueue
attr title  "packets dropped by queue, count"
scalar hierarchical.gw[0].wlan[0].mgmt 	dropPkByQueue:sum(packetBytes) 	0
attr interpolationmode  none
attr source  dropPkByQueue
attr title  "packets dropped by queue, sum(packetBytes)"
scalar hierarchical.gw[0].wlan[0].mac 	"number of received packets" 	6286
scalar hierarchical.gw[0].wlan[0].mac 	"number of collisions" 	684
scalar hierarchical.gw[0].wlan[0].mac 	"number of internal collisions" 	0
scalar hierarchical.gw[0].wlan[0].mac 	"number of retry for AC 0" 	375
scalar hierarchical.gw[0].wlan[0].mac 	"sent and received bits" 	4098224
scalar hierarchical.gw[0].wlan[0].mac 	"sent packet within AC 0" 	2201
scalar hierarchical.gw[0].wlan[0].mac 	"sent in TXOP " 	0
scalar hierarchical.gw[0].wlan[0].mac 	"sentWithoutRetry AC 0" 	2191
scalar hierarchical.gw[0].wlan[0].mac 	"numGivenUp AC 0" 	60
scalar hierarchical.gw[0].wlan[0].mac 	"numDropped AC 0" 	0
scalar hierarchical.gw[0].wlan[0].mac 	rcvdPkFromHL:count 	3061
attr interpolationmode  none
attr source  packetReceivedFromUpper
attr title  "packets received from higher layer, count"
scalar hierarchical.gw[0].wlan[0].mac 	rcvdPkFromHL:sum(packetBytes) 	523678
attr interpolationmode  none
attr source  packetReceivedFromUpper
attr title  "packets received from higher layer, sum(packetBytes)"
scalar hierarchical.gw[0].wlan[0].mac 	passedUpPk:count 	9163
attr interpolationmode  none
attr source  packetSentToUpper
attr title  "packets passed to higher layer, count"
scalar hierarchical.gw[0].wlan[0].mac 	passedUpPk:sum(packetBytes) 	1483542
attr interpolationmode  none
attr source  packetSentToUpper
attr title  "packets passed to higher layer, sum(packetBytes)"
scalar hierarchical.gw[0].wlan[0].mac 	rcvdPkFromLL:count 	27076
attr interpolationmode  none
attr source  packetReceivedFromLower
attr title  "packets received from lower layer, count"
scalar hierarchical.gw[0].wlan[0].mac 	rcvdPkFromLL:sum(packetBytes) 	3403836
attr interpolationmode  none
attr source  packetReceivedFromLower
attr title  "packets received from lower layer, sum(packetBytes)"
scalar hierarchical.gw[0].wlan[0].mac 	sentDownPk:count 	9722
attr interpolationmode  none
attr source  packetSentToLower
attr title  "packets sent to lower layer, count"
scalar hierarchical.gw[0].wlan[0].mac 	sentDownPk:sum(packetBytes) 	682932
attr interpolationmode  none
attr source  packetSentToLower
attr title  "packets sent to lower layer, sum(packetBytes)"
scalar hierarchical.gw[0].wlan[0].radio 	lossRate:min 	0
attr interpolationmode  backward-sample-hold
attr title  "packet loss rate, min"
scalar hierarchical.gw[0].wlan[0].radio 	lossRate:max 	0.26
attr interpolationmode  backward-sample-hold
attr title  "packet loss rate, max"
scalar hierarchical.gw[0].wlan[0].radio 	lossRate:timeavg 	0.014690278498519
attr interpolationmode  backward-sample-hold
attr title  "packet loss rate, timeavg"
statistic hierarchical.gw[0].wlan[0].radio 	channelNo:histogram
field count 1
field mean 0
field stddev -nan
field sum 0
field sqrsum 0
field min 0
field max 0
attr interpolationmode  sample-hold
attr title  "channel no, histogram"
bin	-INF	0
bin	-0.5	0
bin	-0.46666666666667	0
bin	-0.43333333333333	0
bin	-0.4	0
bin	-0.36666666666667	0
bin	-0.33333333333333	0
bin	-0.3	0
bin	-0.26666666666667	0
bin	-0.23333333333333	0
bin	-0.2	0
bin	-0.16666666666667	0
bin	-0.13333333333333	0
bin	-0.1	0
bin	-0.066666666666667	0
bin	-0.033333333333333	0
bin	0	1
bin	0.033333333333333	0
bin	0.066666666666667	0
bin	0.1	0
bin	0.13333333333333	0
bin	0.16666666666667	0
bin	0.2	0
bin	0.23333333333333	0
bin	0.26666666666667	0
bin	0.3	0
bin	0.33333333333333	0
bin	0.36666666666667	0
bin	0.4	0
bin	0.43333333333333	0
bin	0.46666666666667	0
bin	0.5	0
scalar hierarchical.gw[0].wlan[0].radio 	bitrate:min 	11000000
attr interpolationmode  sample-hold
attr title  "tx bitrate, min"
attr unit  bps
scalar hierarchical.gw[0].wlan[0].radio 	bitrate:max 	11000000
attr interpolationmode  sample-hold
attr title  "tx bitrate, max"
attr unit  bps
scalar hierarchical.gw[0].wlan[0].radio 	bitrate:timeavg 	11000000
attr interpolationmode  sample-hold
attr title  "tx bitrate, timeavg"
attr unit  bps
scalar hierarchical.gw[0].wlan[0].radio 	radioState:count 	73458
attr interpolationmode  sample-hold
attr title  "radio state (enum), count"
scalar hierarchical.gw[0].wlan[1].mgmt 	dataQueueLen:max 	10
attr interpolationmode  sample-hold
attr title  "data queue length, max"
scalar hierarchical.gw[0].wlan[1].mgmt 	dataQueueLen:timeavg 	0.72323242662581
attr interpolationmode  sample-hold
attr title  "data queue length, timeavg"
scalar hierarchical.gw[0].wlan[1].mgmt 	dropPkByQueue:count 	3607
attr interpolationmode  none
attr source  dropPkByQueue
attr title  "packets dropped by queue, count"
scalar hierarchical.gw[0].wlan[1].mgmt 	dropPkByQueue:sum(packetBytes) 	492089
attr interpolationmode  none
attr source  dropPkByQueue
attr title  "packets dropped by queue, sum(packetBytes)"
scalar hierarchical.gw[0].wlan[1].mac 	"number of received packets" 	13448
scalar hierarchical.gw[0].wlan[1].mac 	"number of collisions" 	1171
scalar hierarchical.gw[0].wlan[1].mac 	"number of internal collisions" 	0
scalar hierarchical.gw[0].wlan[1].mac 	"number of retry for AC 0" 	24942
scalar hierarchical.gw[0].wlan[1].mac 	"sent and received bits" 	18774422
scalar hierarchical.gw[0].wlan[1].mac 	"sent packet within AC 0" 	17054
scalar hierarchical.gw[0].wlan[1].mac 	"sent in TXOP " 	0
scalar hierarchical.gw[0].wlan[1].mac 	"sentWithoutRetry AC 0" 	10041
scalar hierarchical.gw[0].wlan[1].mac 	"numGivenUp AC 0" 	1128
scalar hierarchical.gw[0].wlan[1].mac 	"numDropped AC 0" 	0
scalar hierarchical.gw[0].wlan[1].mac 	rcvdPkFromHL:count 	18454
attr interpolationmode  none
attr source  packetReceivedFromUpper
attr title  "packets received from higher layer, count"
scalar hierarchical.gw[0].wlan[1].mac 	rcvdPkFromHL:sum(packetBytes) 	2502885
attr interpolationmode  none
attr source  packetReceivedFromUpper
attr title  "packets received from higher layer, sum(packetBytes)"
scalar hierarchical.gw[0].wlan[1].mac 	passedUpPk:count 	13894
attr interpolationmode  none
attr source  packetSentToUpper
attr title  "packets passed to higher layer, count"
scalar hierarchical.gw[0].wlan[1].mac 	passedUpPk:sum(packetBytes) 	1910558
attr interpolationmode  none
attr source  packetSentToUpper
attr title  "packets passed to higher layer, sum(packetBytes)"
scalar hierarchical.gw[0].wlan[1].mac 	rcvdPkFromLL:count 	72371
attr interpolationmode  none
attr source  packetReceivedFromLower
attr title  "packets received from lower layer, count"
scalar hierarchical.gw[0].wlan[1].mac 	rcvdPkFromLL:sum(packetBytes) 	5904146
attr interpolationmode  none
attr source  packetReceivedFromLower
attr title  "packets received from lower layer, sum(packetBytes)"
scalar hierarchical.gw[0].wlan[1].mac 	sentDownPk:count 	56842
attr interpolationmode  none
attr source  packetSentToLower
attr title  "packets sent to lower layer, count"
scalar hierarchical.gw[0].wlan[1].mac 	sentDownPk:sum(packetBytes) 	6078565
attr interpolationmode  none
attr source  packetSentToLower
attr title  "packets sent to lower layer, sum(packetBytes)"
scalar hierarchical.gw[0].wlan[1].radio 	lossRate:min 	0
attr interpolationmode  backward-sample-hold
attr title  "packet loss rate, min"
scalar hierarchical.gw[0].wlan[1].radio 	lossRate:max 	0.14
attr interpolationmode  backward-sample-hold
attr title  "packet loss rate, max"
scalar hierarchical.gw[0].wlan[1].radio 	lossRate:timeavg 	0.0090732394488377
attr interpolationmode  backward-sample-hold
attr title  "packet loss rate, timeavg"
statistic hierarchical.gw[0].wlan[1].radio 	channelNo:histogram
field count 1
field mean 5
field stddev -nan
field sum 5
field sqrsum 25
field min 5
field max 5
attr interpolationmode  sample-hold
attr title  "channel no, histogram"
bin	-INF	0
bin	4	0
bin	5	1
bin	6	0
scalar hierarchical.gw[0].wlan[1].radio 	bitrate:min 	11000000
attr interpolationmode  sample-hold
attr title  "tx bitrate, min"
attr unit  bps
scalar hierarchical.gw[0].wlan[1].radio 	bitrate:max 	11000000
attr interpolationmode  sample-hold
attr title  "tx bitrate, max"
attr unit  bps
scalar hierarchical.gw[0].wlan[1].radio 	bitrate:timeavg 	11000000
attr interpolationmode  sample-hold
attr title  "tx bitrate, timeavg"
attr unit  bps
scalar hierarchical.gw[0].wlan[1].radio 	radioState:count 	260960
attr interpolationmode  sample-hold
attr title  "radio state (enum), count"
scalar hierarchical.gw[0].manetrouting 	OLSR_HNA_Messages_(Forwarded) 	0
scalar hierarchical.gw[0].manetrouting 	OLSR_TC_Messages_(Forwarded) 	223
scalar hierarchical.gw[0].manetrouting 	OLSR_Total_HELLO 	217
scalar hierarchical.gw[0].manetrouting 	OLSR_Total_HNA_(originated) 	80
scalar hierarchical.gw[0].manetrouting 	OLSR_Total_TC 	78
scalar hierarchical.gw[0].manetrouting 	OLSR_Total_Messages_Sent 	598
scalar hierarchical.gw[0].backbonemanetrouting 	OLSR_HNA_Messages_(Forwarded) 	0
scalar hierarchical.gw[0].backbonemanetrouting 	OLSR_TC_Messages_(Forwarded) 	195
scalar hierarchical.gw[0].backbonemanetrouting 	OLSR_Total_HELLO 	216
scalar hierarchical.gw[0].backbonemanetrouting 	OLSR_Total_HNA_(originated) 	0
scalar hierarchical.gw[0].backbonemanetrouting 	OLSR_Total_TC 	0
scalar hierarchical.gw[0].backbonemanetrouting 	OLSR_Total_Messages_Sent 	411
scalar hierarchical.gw[0].udp 	droppedPkBadChecksum:count 	0
attr interpolationmode  none
attr title  "packets dropped (checksum error), count"
scalar hierarchical.gw[0].udp 	droppedPkWrongPort:count 	0
attr interpolationmode  none
attr title  "packets dropped (wrong port), count"
scalar hierarchical.gw[0].udp 	passedUpPk:count 	12201
attr interpolationmode  none
attr title  "packets passed up, count"
scalar hierarchical.gw[0].udp 	rcvdPk:count 	12201
attr interpolationmode  none
attr source  rcvdPk
attr title  "packets received, count"
scalar hierarchical.gw[0].udp 	rcvdPk:sum(packetBytes) 	790232
attr interpolationmode  none
attr source  rcvdPk
attr title  "packets received, sum(packetBytes)"
scalar hierarchical.gw[0].udp 	sentPk:count 	21270
attr interpolationmode  none
attr source  sentPk
attr title  "packets sent, count"
scalar hierarchical.gw[0].udp 	sentPk:sum(packetBytes) 	1406436
attr interpolationmode  none
attr source  sentPk
attr title  "packets sent, sum(packetBytes)"
scalar hierarchical.gw[0].pingApp[0] 	numOutOfOrderArrivals:last 	-nan
attr interpolationmode  none
attr title  "ping out-of-order arrivals, last"
scalar hierarchical.gw[0].pingApp[0] 	pingRxSeq:count 	0
attr interpolationmode  none
attr title  "ping rx seq, count"
scalar hierarchical.gw[0].pingApp[0] 	pingTxSeq:count 	0
attr interpolationmode  none
attr title  "ping tx seq, count"
scalar hierarchical.gw[0].pingApp[0] 	numLost:last 	-nan
attr interpolationmode  none
attr title  "pings lost, last"
statistic hierarchical.gw[0].pingApp[0] 	rtt:histogram
field count 0
field mean -nan
field stddev -nan
field sum 0
field sqrsum 0
field min -nan
field max -nan
attr interpolationmode  none
attr title  "ping round-trip time, histogram"
attr unit  s
bin	-INF	0
bin	-0.5	0
bin	-0.46666666666667	0
bin	-0.43333333333333	0
bin	-0.4	0
bin	-0.36666666666667	0
bin	-0.33333333333333	0
bin	-0.3	0
bin	-0.26666666666667	0
bin	-0.23333333333333	0
bin	-0.2	0
bin	-0.16666666666667	0
bin	-0.13333333333333	0
bin	-0.1	0
bin	-0.066666666666667	0
bin	-0.033333333333333	0
bin	0	0
bin	0.033333333333333	0
bin	0.066666666666667	0
bin	0.1	0
bin	0.13333333333333	0
bin	0.16666666666667	0
bin	0.2	0
bin	0.23333333333333	0
bin	0.26666666666667	0
bin	0.3	0
bin	0.33333333333333	0
bin	0.36666666666667	0
bin	0.4	0
bin	0.43333333333333	0
bin	0.46666666666667	0
bin	0.5	0
scalar hierarchical.gw[0].pingTestApp[0] 	numOutOfOrderArrivals:last 	-nan
attr interpolationmode  none
attr title  "ping out-of-order arrivals, last"
scalar hierarchical.gw[0].pingTestApp[0] 	pingRxSeq:count 	0
attr interpolationmode  none
attr title  "ping rx seq, count"
scalar hierarchical.gw[0].pingTestApp[0] 	pingTxSeq:count 	0
attr interpolationmode  none
attr title  "ping tx seq, count"
scalar hierarchical.gw[0].pingTestApp[0] 	numLost:last 	-nan
attr interpolationmode  none
attr title  "pings lost, last"
statistic hierarchical.gw[0].pingTestApp[0] 	rtt:histogram
field count 0
field mean -nan
field stddev -nan
field sum 0
field sqrsum 0
field min -nan
field max -nan
attr interpolationmode  none
attr title  "ping round-trip time, histogram"
attr unit  s
bin	-INF	0
bin	-0.5	0
bin	-0.46666666666667	0
bin	-0.43333333333333	0
bin	-0.4	0
bin	-0.36666666666667	0
bin	-0.33333333333333	0
bin	-0.3	0
bin	-0.26666666666667	0
bin	-0.23333333333333	0
bin	-0.2	0
bin	-0.16666666666667	0
bin	-0.13333333333333	0
bin	-0.1	0
bin	-0.066666666666667	0
bin	-0.033333333333333	0
bin	0	0
bin	0.033333333333333	0
bin	0.066666666666667	0
bin	0.1	0
bin	0.13333333333333	0
bin	0.16666666666667	0
bin	0.2	0
bin	0.23333333333333	0
bin	0.26666666666667	0
bin	0.3	0
bin	0.33333333333333	0
bin	0.36666666666667	0
bin	0.4	0
bin	0.43333333333333	0
bin	0.46666666666667	0
bin	0.5	0
scalar hierarchical.gw[1].networkLayer.arp 	failedARPResolution:count 	0
attr title  "ARP failed resolutions, count"
scalar hierarchical.gw[1].networkLayer.arp 	completedARPResolution:count 	10
attr title  "ARP completed resolutions, count"
scalar hierarchical.gw[1].networkLayer.arp 	initiatedARPResolution:count 	6
attr title  "ARP initiated resolutions, count"
scalar hierarchical.gw[1].networkLayer.arp 	sentReply:count 	2
attr title  "ARP replies sent, count"
scalar hierarchical.gw[1].networkLayer.arp 	sentReq:count 	7
attr title  "ARP request sent, count"
scalar hierarchical.gw[1].lo0.lo 	droppedPkBitError:count 	0
attr interpolationmode  none
attr source  dropPkBitError
attr title  "packets dropped/bit error, count"
scalar hierarchical.gw[1].lo0.lo 	droppedPkBitError:sum(packetBytes) 	0
attr interpolationmode  none
attr source  dropPkBitError
attr title  "packets dropped/bit error, sum(packetBytes)"
scalar hierarchical.gw[1].lo0.lo 	rcvdPkFromHL:count 	630
attr interpolationmode  none
attr source  packetReceivedFromUpper
attr title  "packets received from higher layer, count"
scalar hierarchical.gw[1].lo0.lo 	rcvdPkFromHL:sum(packetBytes) 	58472
attr interpolationmode  none
attr source  packetReceivedFromUpper
attr title  "packets received from higher layer, sum(packetBytes)"
scalar hierarchical.gw[1].lo0.lo 	passedUpPk:count 	630
attr interpolationmode  none
attr source  packetSentToUpper
attr title  "packets passed to higher layer, count"
scalar hierarchical.gw[1].lo0.lo 	passedUpPk:sum(packetBytes) 	58472
attr interpolationmode  none
attr source  packetSentToUpper
attr title  "packets passed to higher layer, sum(packetBytes)"
scalar hierarchical.gw[1].wlan[0].mgmt 	dataQueueLen:max 	0
attr interpolationmode  sample-hold
attr title  "data queue length, max"
scalar hierarchical.gw[1].wlan[0].mgmt 	dataQueueLen:timeavg 	0
attr interpolationmode  sample-hold
attr title  "data queue length, timeavg"
scalar hierarchical.gw[1].wlan[0].mgmt 	dropPkByQueue:count 	0
attr interpolationmode  none
attr source  dropPkByQueue
attr title  "packets dropped by queue, count"
scalar hierarchical.gw[1].wlan[0].mgmt 	dropPkByQueue:sum(packetBytes) 	0
attr interpolationmode  none
attr source  dropPkByQueue
attr title  "packets dropped by queue, sum(packetBytes)"
scalar hierarchical.gw[1].wlan[0].mac 	"number of received packets" 	0
scalar hierarchical.gw[1].wlan[0].mac 	"number of collisions" 	0
scalar hierarchical.gw[1].wlan[0].mac 	"number of internal collisions" 	0
scalar hierarchical.gw[1].wlan[0].mac 	"number of retry for AC 0" 	0
scalar hierarchical.gw[1].wlan[0].mac 	"sent and received bits" 	239072
scalar hierarchical.gw[1].wlan[0].mac 	"sent packet within AC 0" 	0
scalar hierarchical.gw[1].wlan[0].mac 	"sent in TXOP " 	0
scalar hierarchical.gw[1].wlan[0].mac 	"sentWithoutRetry AC 0" 	0
scalar hierarchical.gw[1].wlan[0].mac 	"numGivenUp AC 0" 	0
scalar hierarchical.gw[1].wlan[0].mac 	"numDropped AC 0" 	0
scalar hierarchical.gw[1].wlan[0].mac 	rcvdPkFromHL:count 	318
attr interpolationmode  none
attr source  packetReceivedFromUpper
attr title  "packets received from higher layer, count"
scalar hierarchical.gw[1].wlan[0].mac 	rcvdPkFromHL:sum(packetBytes) 	29884
attr interpolationmode  none
attr source  packetReceivedFromUpper
attr title  "packets received from higher layer, sum(packetBytes)"
scalar hierarchical.gw[1].wlan[0].mac 	passedUpPk:count 	0
attr interpolationmode  none
attr source  packetSentToUpper
attr title  "packets passed to higher layer, count"
scalar hierarchical.gw[1].wlan[0].mac 	passedUpPk:sum(packetBytes) 	0
attr interpolationmode  none
attr source  packetSentToUpper
attr title  "packets passed to higher layer, sum(packetBytes)"
scalar hierarchical.gw[1].wlan[0].mac 	rcvdPkFromLL:count 	0
attr interpolationmode  none
attr source  packetReceivedFromLower
attr title  "packets received from lower layer, count"
scalar hierarchical.gw[1].wlan[0].mac 	rcvdPkFromLL:sum(packetBytes) 	0
attr interpolationmode  none
attr source  packetReceivedFromLower
attr title  "packets received from lower layer, sum(packetBytes)"
scalar hierarchical.gw[1].wlan[0].mac 	sentDownPk:count 	318
attr interpolationmode  none
attr source  packetSentToLower
attr title  "packets sent to lower layer, count"
scalar hierarchical.gw[1].wlan[0].mac 	sentDownPk:sum(packetBytes) 	29884
attr interpolationmode  none
attr source  packetSentToLower
attr title  "packets sent to lower layer, sum(packetBytes)"
scalar hierarchical.gw[1].wlan[0].radio 	lossRate:min 	-nan
attr interpolationmode  backward-sample-hold
attr title  "packet loss rate, min"
scalar hierarchical.gw[1].wlan[0].radio 	lossRate:max 	-nan
attr interpolationmode  backward-sample-hold
attr title  "packet loss rate, max"
scalar hierarchical.gw[1].wlan[0].radio 	lossRate:timeavg 	-nan
attr interpolationmode  backward-sample-hold
attr title  "packet loss rate, timeavg"
statistic hierarchical.gw[1].wlan[0].radio 	channelNo:histogram
field count 1
field mean 1
field stddev -nan
field sum 1
field sqrsum 1
field min 1
field max 1
attr interpolationmode  sample-hold
attr title  "channel no, histogram"
bin	-INF	0
bin	0	0
bin	1	1
bin	2	0
scalar hierarchical.gw[1].wlan[0].radio 	bitrate:min 	11000000
attr interpolationmode  sample-hold
attr title  "tx bitrate, min"
attr unit  bps
scalar hierarchical.gw[1].wlan[0].radio 	bitrate:max 	11000000
attr interpolationmode  sample-hold
attr title  "tx bitrate, max"
attr unit  bps
scalar hierarchical.gw[1].wlan[0].radio 	bitrate:timeavg 	11000000
attr interpolationmode  sample-hold
attr title  "tx bitrate, timeavg"
attr unit  bps
scalar hierarchical.gw[1].wlan[0].radio 	radioState:count 	637
attr interpolationmode  sample-hold
attr title  "radio state (enum), count"
scalar hierarchical.gw[1].wlan[1].mgmt 	dataQueueLen:max 	10
attr interpolationmode  sample-hold
attr title  "data queue length, max"
scalar hierarchical.gw[1].wlan[1].mgmt 	dataQueueLen:timeavg 	0.29819398624864
attr interpolationmode  sample-hold
attr title  "data queue length, timeavg"
scalar hierarchical.gw[1].wlan[1].mgmt 	dropPkByQueue:count 	1474
attr interpolationmode  none
attr source  dropPkByQueue
attr title  "packets dropped by queue, count"
scalar hierarchical.gw[1].wlan[1].mgmt 	dropPkByQueue:sum(packetBytes) 	200067
attr interpolationmode  none
attr source  dropPkByQueue
attr title  "packets dropped by queue, sum(packetBytes)"
scalar hierarchical.gw[1].wlan[1].mac 	"number of received packets" 	32909
scalar hierarchical.gw[1].wlan[1].mac 	"number of collisions" 	27303
scalar hierarchical.gw[1].wlan[1].mac 	"number of internal collisions" 	0
scalar hierarchical.gw[1].wlan[1].mac 	"number of retry for AC 0" 	9348
scalar hierarchical.gw[1].wlan[1].mac 	"sent and received bits" 	33806725
scalar hierarchical.gw[1].wlan[1].mac 	"sent packet within AC 0" 	30270
scalar hierarchical.gw[1].wlan[1].mac 	"sent in TXOP " 	0
scalar hierarchical.gw[1].wlan[1].mac 	"sentWithoutRetry AC 0" 	25938
scalar hierarchical.gw[1].wlan[1].mac 	"numGivenUp AC 0" 	194
scalar hierarchical.gw[1].wlan[1].mac 	"numDropped AC 0" 	0
scalar hierarchical.gw[1].wlan[1].mac 	rcvdPkFromHL:count 	30967
attr interpolationmode  none
attr source  packetReceivedFromUpper
attr title  "packets received from higher layer, count"
scalar hierarchical.gw[1].wlan[1].mac 	rcvdPkFromHL:sum(packetBytes) 	4256028
attr interpolationmode  none
attr source  packetReceivedFromUpper
attr title  "packets received from higher layer, sum(packetBytes)"
scalar hierarchical.gw[1].wlan[1].mac 	passedUpPk:count 	33564
attr interpolationmode  none
attr source  packetSentToUpper
attr title  "packets passed to higher layer, count"
scalar hierarchical.gw[1].wlan[1].mac 	passedUpPk:sum(packetBytes) 	4594629
attr interpolationmode  none
attr source  packetSentToUpper
attr title  "packets passed to higher layer, sum(packetBytes)"
scalar hierarchical.gw[1].wlan[1].mac 	rcvdPkFromLL:count 	125181
attr interpolationmode  none
attr source  packetReceivedFromLower
attr title  "packets received from lower layer, count"
scalar hierarchical.gw[1].wlan[1].mac 	rcvdPkFromLL:sum(packetBytes) 	11153859
attr interpolationmode  none
attr source  packetReceivedFromLower
attr title  "packets received from lower layer, sum(packetBytes)"
scalar hierarchical.gw[1].wlan[1].mac 	sentDownPk:count 	73224
attr interpolationmode  none
attr source  packetSentToLower
attr title  "packets sent to lower layer, count"
scalar hierarchical.gw[1].wlan[1].mac 	sentDownPk:sum(packetBytes) 	6010344
attr interpolationmode  none
attr source  packetSentToLower
attr title  "packets sent to lower layer, sum(packetBytes)"
scalar hierarchical.gw[1].wlan[1].radio 	lossRate:min 	0
attr interpolationmode  backward-sample-hold
attr title  "packet loss rate, min"
scalar hierarchical.gw[1].wlan[1].radio 	lossRate:max 	0.58
attr interpolationmode  backward-sample-hold
attr title  "packet loss rate, max"
scalar hierarchical.gw[1].wlan[1].radio 	lossRate:timeavg 	0.10076242034056
attr interpolationmode  backward-sample-hold
attr title  "packet loss rate, timeavg"
statistic hierarchical.gw[1].wlan[1].radio 	channelNo:histogram
field count 1
field mean 5
field stddev -nan
field sum 5
field sqrsum 25
field min 5
field max 5
attr interpolationmode  sample-hold
attr title  "channel no, histogram"
bin	-INF	0
bin	4	0
bin	5	1
bin	6	0
scalar hierarchical.gw[1].wlan[1].radio 	bitrate:min 	11000000
attr interpolationmode  sample-hold
attr title  "tx bitrate, min"
attr unit  bps
scalar hierarchical.gw[1].wlan[1].radio 	bitrate:max 	11000000
attr interpolationmode  sample-hold
attr title  "tx bitrate, max"
attr unit  bps
scalar hierarchical.gw[1].wlan[1].radio 	bitrate:timeavg 	11000000
attr interpolationmode  sample-hold
attr title  "tx bitrate, timeavg"
attr unit  bps
scalar hierarchical.gw[1].wlan[1].radio 	radioState:count 	397384
attr interpolationmode  sample-hold
attr title  "radio state (enum), count"
scalar hierarchical.gw[1].manetrouting 	OLSR_HNA_Messages_(Forwarded) 	0
scalar hierarchical.gw[1].manetrouting 	OLSR_TC_Messages_(Forwarded) 	0
scalar hierarchical.gw[1].manetrouting 	OLSR_Total_HELLO 	217
scalar hierarchical.gw[1].manetrouting 	OLSR_Total_HNA_(originated) 	80
scalar hierarchical.gw[1].manetrouting 	OLSR_Total_TC 	0
scalar hierarchical.gw[1].manetrouting 	OLSR_Total_Messages_Sent 	297
scalar hierarchical.gw[1].backbonemanetrouting 	OLSR_HNA_Messages_(Forwarded) 	0
scalar hierarchical.gw[1].backbonemanetrouting 	OLSR_TC_Messages_(Forwarded) 	124
scalar hierarchical.gw[1].backbonemanetrouting 	OLSR_Total_HELLO 	215
scalar hierarchical.gw[1].backbonemanetrouting 	OLSR_Total_HNA_(originated) 	0
scalar hierarchical.gw[1].backbonemanetrouting 	OLSR_Total_TC 	77
scalar hierarchical.gw[1].backbonemanetrouting 	OLSR_Total_Messages_Sent 	416
scalar hierarchical.gw[1].udp 	droppedPkBadChecksum:count 	0
attr interpolationmode  none
attr title  "packets dropped (checksum error), count"
scalar hierarchical.gw[1].udp 	droppedPkWrongPort:count 	0
attr interpolationmode  none
attr title  "packets dropped (wrong port), count"
scalar hierarchical.gw[1].udp 	passedUpPk:count 	5838
attr interpolationmode  none
attr title  "packets passed up, count"
scalar hierarchical.gw[1].udp 	rcvdPk:count 	5838
attr interpolationmode  none
attr source  rcvdPk
attr title  "packets received, count"
scalar hierarchical.gw[1].udp 	rcvdPk:sum(packetBytes) 	394146
attr interpolationmode  none
attr source  rcvdPk
attr title  "packets received, sum(packetBytes)"
scalar hierarchical.gw[1].udp 	sentPk:count 	6883
attr interpolationmode  none
attr source  sentPk
attr title  "packets sent, count"
scalar hierarchical.gw[1].udp 	sentPk:sum(packetBytes) 	533459
attr interpolationmode  none
attr source  sentPk
attr title  "packets sent, sum(packetBytes)"
scalar hierarchical.gw[1].pingApp[0] 	numOutOfOrderArrivals:last 	-nan
attr interpolationmode  none
attr title  "ping out-of-order arrivals, last"
scalar hierarchical.gw[1].pingApp[0] 	pingRxSeq:count 	0
attr interpolationmode  none
attr title  "ping rx seq, count"
scalar hierarchical.gw[1].pingApp[0] 	pingTxSeq:count 	0
attr interpolationmode  none
attr title  "ping tx seq, count"
scalar hierarchical.gw[1].pingApp[0] 	numLost:last 	-nan
attr interpolationmode  none
attr title  "pings lost, last"
statistic hierarchical.gw[1].pingApp[0] 	rtt:histogram
field count 0
field mean -nan
field stddev -nan
field sum 0
field sqrsum 0
field min -nan
field max -nan
attr interpolationmode  none
attr title  "ping round-trip time, histogram"
attr unit  s
bin	-INF	0
bin	-0.5	0
bin	-0.46666666666667	0
bin	-0.43333333333333	0
bin	-0.4	0
bin	-0.36666666666667	0
bin	-0.33333333333333	0
bin	-0.3	0
bin	-0.26666666666667	0
bin	-0.23333333333333	0
bin	-0.2	0
bin	-0.16666666666667	0
bin	-0.13333333333333	0
bin	-0.1	0
bin	-0.066666666666667	0
bin	-0.033333333333333	0
bin	0	0
bin	0.033333333333333	0
bin	0.066666666666667	0
bin	0.1	0
bin	0.13333333333333	0
bin	0.16666666666667	0
bin	0.2	0
bin	0.23333333333333	0
bin	0.26666666666667	0
bin	0.3	0
bin	0.33333333333333	0
bin	0.36666666666667	0
bin	0.4	0
bin	0.43333333333333	0
bin	0.46666666666667	0
bin	0.5	0
scalar hierarchical.gw[1].pingTestApp[0] 	numOutOfOrderArrivals:last 	-nan
attr interpolationmode  none
attr title  "ping out-of-order arrivals, last"
scalar hierarchical.gw[1].pingTestApp[0] 	pingRxSeq:count 	0
attr interpolationmode  none
attr title  "ping rx seq, count"
scalar hierarchical.gw[1].pingTestApp[0] 	pingTxSeq:count 	0
attr interpolationmode  none
attr title  "ping tx seq, count"
scalar hierarchical.gw[1].pingTestApp[0] 	numLost:last 	-nan
attr interpolationmode  none
attr title  "pings lost, last"
statistic hierarchical.gw[1].pingTestApp[0] 	rtt:histogram
field count 0
field mean -nan
field stddev -nan
field sum 0
field sqrsum 0
field min -nan
field max -nan
attr interpolationmode  none
attr title  "ping round-trip time, histogram"
attr unit  s
bin	-INF	0
bin	-0.5	0
bin	-0.46666666666667	0
bin	-0.43333333333333	0
bin	-0.4	0
bin	-0.36666666666667	0
bin	-0.33333333333333	0
bin	-0.3	0
bin	-0.26666666666667	0
bin	-0.23333333333333	0
bin	-0.2	0
bin	-0.16666666666667	0
bin	-0.13333333333333	0
bin	-0.1	0
bin	-0.066666666666667	0
bin	-0.033333333333333	0
bin	0	0
bin	0.033333333333333	0
bin	0.066666666666667	0
bin	0.1	0
bin	0.13333333333333	0
bin	0.16666666666667	0
bin	0.2	0
bin	0.23333333333333	0
bin	0.26666666666667	0
bin	0.3	0
bin	0.33333333333333	0
bin	0.36666666666667	0
bin	0.4	0
bin	0.43333333333333	0
bin	0.46666666666667	0
bin	0.5	0
scalar hierarchical.gw[2].networkLayer.arp 	failedARPResolution:count 	0
attr title  "ARP failed resolutions, count"
scalar hierarchical.gw[2].networkLayer.arp 	completedARPResolution:count 	50
attr title  "ARP completed resolutions, count"
scalar hierarchical.gw[2].networkLayer.arp 	initiatedARPResolution:count 	5
attr title  "ARP initiated resolutions, count"
scalar hierarchical.gw[2].networkLayer.arp 	sentReply:count 	16
attr title  "ARP replies sent, count"
scalar hierarchical.gw[2].networkLayer.arp 	sentReq:count 	5
attr title  "ARP request sent, count"
scalar hierarchical.gw[2].lo0.lo 	droppedPkBitError:count 	0
attr interpolationmode  none
attr source  dropPkBitError
attr title  "packets dropped/bit error, count"
scalar hierarchical.gw[2].lo0.lo 	droppedPkBitError:sum(packetBytes) 	0
attr interpolationmode  none
attr source  dropPkBitError
attr title  "packets dropped/bit error, sum(packetBytes)"
scalar hierarchical.gw[2].lo0.lo 	rcvdPkFromHL:count 	1266
attr interpolationmode  none
attr source  packetReceivedFromUpper
attr title  "packets received from higher layer, count"
scalar hierarchical.gw[2].lo0.lo 	rcvdPkFromHL:sum(packetBytes) 	115481
attr interpolationmode  none
attr source  packetReceivedFromUpper
attr title  "packets received from higher layer, sum(packetBytes)"
scalar hierarchical.gw[2].lo0.lo 	passedUpPk:count 	1266
attr interpolationmode  none
attr source  packetSentToUpper
attr title  "packets passed to higher layer, count"
scalar hierarchical.gw[2].lo0.lo 	passedUpPk:sum(packetBytes) 	115481
attr interpolationmode  none
attr source  packetSentToUpper
attr title  "packets passed to higher layer, sum(packetBytes)"
scalar hierarchical.gw[2].wlan[0].mgmt 	dataQueueLen:max 	0
attr interpolationmode  sample-hold
attr title  "data queue length, max"
scalar hierarchical.gw[2].wlan[0].mgmt 	dataQueueLen:timeavg 	0
attr interpolationmode  sample-hold
attr title  "data queue length, timeavg"
scalar hierarchical.gw[2].wlan[0].mgmt 	dropPkByQueue:count 	0
attr interpolationmode  none
attr source  dropPkByQueue
attr title  "packets dropped by queue, count"
scalar hierarchical.gw[2].wlan[0].mgmt 	dropPkByQueue:sum(packetBytes) 	0
attr interpolationmode  none
attr source  dropPkByQueue
attr title  "packets dropped by queue, sum(packetBytes)"
scalar hierarchical.gw[2].wlan[0].mac 	"number of received packets" 	4401
scalar hierarchical.gw[2].wlan[0].mac 	"number of collisions" 	272
scalar hierarchical.gw[2].wlan[0].mac 	"number of internal collisions" 	0
scalar hierarchical.gw[2].wlan[0].mac 	"number of retry for AC 0" 	9
scalar hierarchical.gw[2].wlan[0].mac 	"sent and received bits" 	3160400
scalar hierarchical.gw[2].wlan[0].mac 	"sent packet within AC 0" 	1665
scalar hierarchical.gw[2].wlan[0].mac 	"sent in TXOP " 	0
scalar hierarchical.gw[2].wlan[0].mac 	"sentWithoutRetry AC 0" 	1656
scalar hierarchical.gw[2].wlan[0].mac 	"numGivenUp AC 0" 	0
scalar hierarchical.gw[2].wlan[0].mac 	"numDropped AC 0" 	0
scalar hierarchical.gw[2].wlan[0].mac 	rcvdPkFromHL:count 	2327
attr interpolationmode  none
attr source  packetReceivedFromUpper
attr title  "packets received from higher layer, count"
scalar hierarchical.gw[2].wlan[0].mac 	rcvdPkFromHL:sum(packetBytes) 	395050
attr interpolationmode  none
attr source  packetReceivedFromUpper
attr title  "packets received from higher layer, sum(packetBytes)"
scalar hierarchical.gw[2].wlan[0].mac 	passedUpPk:count 	7704
attr interpolationmode  none
attr source  packetSentToUpper
attr title  "packets passed to higher layer, count"
scalar hierarchical.gw[2].wlan[0].mac 	passedUpPk:sum(packetBytes) 	1218052
attr interpolationmode  none
attr source  packetSentToUpper
attr title  "packets passed to higher layer, sum(packetBytes)"
scalar hierarchical.gw[2].wlan[0].mac 	rcvdPkFromLL:count 	24205
attr interpolationmode  none
attr source  packetReceivedFromLower
attr title  "packets received from lower layer, count"
scalar hierarchical.gw[2].wlan[0].mac 	rcvdPkFromLL:sum(packetBytes) 	2929526
attr interpolationmode  none
attr source  packetReceivedFromLower
attr title  "packets received from lower layer, sum(packetBytes)"
scalar hierarchical.gw[2].wlan[0].mac 	sentDownPk:count 	6737
attr interpolationmode  none
attr source  packetSentToLower
attr title  "packets sent to lower layer, count"
scalar hierarchical.gw[2].wlan[0].mac 	sentDownPk:sum(packetBytes) 	458254
attr interpolationmode  none
attr source  packetSentToLower
attr title  "packets sent to lower layer, sum(packetBytes)"
scalar hierarchical.gw[2].wlan[0].radio 	lossRate:min 	0
attr interpolationmode  backward-sample-hold
attr title  "packet loss rate, min"
scalar hierarchical.gw[2].wlan[0].radio 	lossRate:max 	0.14
attr interpolationmode  backward-sample-hold
attr title  "packet loss rate, max"
scalar hierarchical.gw[2].wlan[0].radio 	lossRate:timeavg 	0.0068376822670213
attr interpolationmode  backward-sample-hold
attr title  "packet loss rate, timeavg"
statistic hierarchical.gw[2].wlan[0].radio 	channelNo:histogram
field count 1
field mean 2
field stddev -nan
field sum 2
field sqrsum 4
field min 2
field max 2
attr interpolationmode  sample-hold
attr title  "channel no, histogram"
bin	-INF	0
bin	1	0
bin	2	1
bin	3	0
scalar hierarchical.gw[2].wlan[0].radio 	bitrate:min 	11000000
attr interpolationmode  sample-hold
attr title  "tx bitrate, min"
attr unit  bps
scalar hierarchical.gw[2].wlan[0].radio 	bitrate:max 	11000000
attr interpolationmode  sample-hold
attr title  "tx bitrate, max"
attr unit  bps
scalar hierarchical.gw[2].wlan[0].radio 	bitrate:timeavg 	11000000
attr interpolationmode  sample-hold
attr title  "tx bitrate, timeavg"
attr unit  bps
scalar hierarchical.gw[2].wlan[0].radio 	radioState:count 	61820
attr interpolationmode  sample-hold
attr title  "radio state (enum), count"
scalar hierarchical.gw[2].wlan[1].mgmt 	dataQueueLen:max 	10
attr interpolationmode  sample-hold
attr title  "data queue length, max"
scalar hierarchical.gw[2].wlan[1].mgmt 	dataQueueLen:timeavg 	0.50444262826839
attr interpolationmode  sample-hold
attr title  "data queue length, timeavg"
scalar hierarchical.gw[2].wlan[1].mgmt 	dropPkByQueue:count 	3020
attr interpolationmode  none
attr source  dropPkByQueue
attr title  "packets dropped by queue, count"
scalar hierarchical.gw[2].wlan[1].mgmt 	dropPkByQueue:sum(packetBytes) 	418682
attr interpolationmode  none
attr source  dropPkByQueue
attr title  "packets dropped by queue, sum(packetBytes)"
scalar hierarchical.gw[2].wlan[1].mac 	"number of received packets" 	33978
scalar hierarchical.gw[2].wlan[1].mac 	"number of collisions" 	22789
scalar hierarchical.gw[2].wlan[1].mac 	"number of internal collisions" 	0
scalar hierarchical.gw[2].wlan[1].mac 	"number of retry for AC 0" 	15998
scalar hierarchical.gw[2].wlan[1].mac 	"sent and received bits" 	36860856
scalar hierarchical.gw[2].wlan[1].mac 	"sent packet within AC 0" 	34171
scalar hierarchical.gw[2].wlan[1].mac 	"sent in TXOP " 	0
scalar hierarchical.gw[2].wlan[1].mac 	"sentWithoutRetry AC 0" 	26723
scalar hierarchical.gw[2].wlan[1].mac 	"numGivenUp AC 0" 	169
scalar hierarchical.gw[2].wlan[1].mac 	"numDropped AC 0" 	0
scalar hierarchical.gw[2].wlan[1].mac 	rcvdPkFromHL:count 	34861
attr interpolationmode  none
attr source  packetReceivedFromUpper
attr title  "packets received from higher layer, count"
scalar hierarchical.gw[2].wlan[1].mac 	rcvdPkFromHL:sum(packetBytes) 	4638166
attr interpolationmode  none
attr source  packetReceivedFromUpper
attr title  "packets received from higher layer, sum(packetBytes)"
scalar hierarchical.gw[2].wlan[1].mac 	passedUpPk:count 	34870
attr interpolationmode  none
attr source  packetSentToUpper
attr title  "packets passed to higher layer, count"
scalar hierarchical.gw[2].wlan[1].mac 	passedUpPk:sum(packetBytes) 	4470569
attr interpolationmode  none
attr source  packetSentToUpper
attr title  "packets passed to higher layer, sum(packetBytes)"
scalar hierarchical.gw[2].wlan[1].mac 	rcvdPkFromLL:count 	136608
attr interpolationmode  none
attr source  packetReceivedFromLower
attr title  "packets received from lower layer, count"
scalar hierarchical.gw[2].wlan[1].mac 	rcvdPkFromLL:sum(packetBytes) 	10524024
attr interpolationmode  none
attr source  packetReceivedFromLower
attr title  "packets received from lower layer, sum(packetBytes)"
scalar hierarchical.gw[2].wlan[1].mac 	sentDownPk:count 	84837
attr interpolationmode  none
attr source  packetSentToLower
attr title  "packets sent to lower layer, count"
scalar hierarchical.gw[2].wlan[1].mac 	sentDownPk:sum(packetBytes) 	7298406
attr interpolationmode  none
attr source  packetSentToLower
attr title  "packets sent to lower layer, sum(packetBytes)"
scalar hierarchical.gw[2].wlan[1].radio 	lossRate:min 	0
attr interpolationmode  backward-sample-hold
attr title  "packet loss rate, min"
scalar hierarchical.gw[2].wlan[1].radio 	lossRate:max 	0.48
attr interpolationmode  backward-sample-hold
attr title  "packet loss rate, max"
scalar hierarchical.gw[2].wlan[1].radio 	lossRate:timeavg 	0.079356925278801
attr interpolationmode  backward-sample-hold
attr title  "packet loss rate, timeavg"
statistic hierarchical.gw[2].wlan[1].radio 	channelNo:histogram
field count 1
field mean 5
field stddev -nan
field sum 5
field sqrsum 25
field min 5
field max 5
attr interpolationmode  sample-hold
attr title  "channel no, histogram"
bin	-INF	0
bin	4	0
bin	5	1
bin	6	0
scalar hierarchical.gw[2].wlan[1].radio 	bitrate:min 	11000000
attr interpolationmode  sample-hold
attr title  "tx bitrate, min"
attr unit  bps
scalar hierarchical.gw[2].wlan[1].radio 	bitrate:max 	11000000
attr interpolationmode  sample-hold
attr title  "tx bitrate, max"
attr unit  bps
scalar hierarchical.gw[2].wlan[1].radio 	bitrate:timeavg 	11000000
attr interpolationmode  sample-hold
attr title  "tx bitrate, timeavg"
attr unit  bps
scalar hierarchical.gw[2].wlan[1].radio 	radioState:count 	456279
attr interpolationmode  sample-hold
attr title  "radio state (enum), count"
scalar hierarchical.gw[2].manetrouting 	OLSR_HNA_Messages_(Forwarded) 	0
scalar hierarchical.gw[2].manetrouting 	OLSR_TC_Messages_(Forwarded) 	202
scalar hierarchical.gw[2].manetrouting 	OLSR_Total_HELLO 	216
scalar hierarchical.gw[2].manetrouting 	OLSR_Total_HNA_(originated) 	80
scalar hierarchical.gw[2].manetrouting 	OLSR_Total_TC 	74
scalar hierarchical.gw[2].manetrouting 	OLSR_Total_Messages_Sent 	572
scalar hierarchical.gw[2].backbonemanetrouting 	OLSR_HNA_Messages_(Forwarded) 	0
scalar hierarchical.gw[2].backbonemanetrouting 	OLSR_TC_Messages_(Forwarded) 	130
scalar hierarchical.gw[2].backbonemanetrouting 	OLSR_Total_HELLO 	217
scalar hierarchical.gw[2].backbonemanetrouting 	OLSR_Total_HNA_(originated) 	0
scalar hierarchical.gw[2].backbonemanetrouting 	OLSR_Total_TC 	78
scalar hierarchical.gw[2].backbonemanetrouting 	OLSR_Total_Messages_Sent 	425
scalar hierarchical.gw[2].udp 	droppedPkBadChecksum:count 	0
attr interpolationmode  none
attr title  "packets dropped (checksum error), count"
scalar hierarchical.gw[2].udp 	droppedPkWrongPort:count 	0
attr interpolationmode  none
attr title  "packets dropped (wrong port), count"
scalar hierarchical.gw[2].udp 	passedUpPk:count 	18828
attr interpolationmode  none
attr title  "packets passed up, count"
scalar hierarchical.gw[2].udp 	rcvdPk:count 	18828
attr interpolationmode  none
attr source  rcvdPk
attr title  "packets received, count"
scalar hierarchical.gw[2].udp 	rcvdPk:sum(packetBytes) 	1171086
attr interpolationmode  none
attr source  rcvdPk
attr title  "packets received, sum(packetBytes)"
scalar hierarchical.gw[2].udp 	sentPk:count 	22361
attr interpolationmode  none
attr source  sentPk
attr title  "packets sent, count"
scalar hierarchical.gw[2].udp 	sentPk:sum(packetBytes) 	1542160
attr interpolationmode  none
attr source  sentPk
attr title  "packets sent, sum(packetBytes)"
scalar hierarchical.gw[2].pingApp[0] 	numOutOfOrderArrivals:last 	-nan
attr interpolationmode  none
attr title  "ping out-of-order arrivals, last"
scalar hierarchical.gw[2].pingApp[0] 	pingRxSeq:count 	0
attr interpolationmode  none
attr title  "ping rx seq, count"
scalar hierarchical.gw[2].pingApp[0] 	pingTxSeq:count 	0
attr interpolationmode  none
attr title  "ping tx seq, count"
scalar hierarchical.gw[2].pingApp[0] 	numLost:last 	-nan
attr interpolationmode  none
attr title  "pings lost, last"
statistic hierarchical.gw[2].pingApp[0] 	rtt:histogram
field count 0
field mean -nan
field stddev -nan
field sum 0
field sqrsum 0
field min -nan
field max -nan
attr interpolationmode  none
attr title  "ping round-trip time, histogram"
attr unit  s
bin	-INF	0
bin	-0.5	0
bin	-0.46666666666667	0
bin	-0.43333333333333	0
bin	-0.4	0
bin	-0.36666666666667	0
bin	-0.33333333333333	0
bin	-0.3	0
bin	-0.26666666666667	0
bin	-0.23333333333333	0
bin	-0.2	0
bin	-0.16666666666667	0
bin	-0.13333333333333	0
bin	-0.1	0
bin	-0.066666666666667	0
bin	-0.033333333333333	0
bin	0	0
bin	0.033333333333333	0
bin	0.066666666666667	0
bin	0.1	0
bin	0.13333333333333	0
bin	0.16666666666667	0
bin	0.2	0
bin	0.23333333333333	0
bin	0.26666666666667	0
bin	0.3	0
bin	0.33333333333333	0
bin	0.36666666666667	0
bin	0.4	0
bin	0.43333333333333	0
bin	0.46666666666667	0
bin	0.5	0
scalar hierarchical.gw[2].pingTestApp[0] 	numOutOfOrderArrivals:last 	-nan
attr interpolationmode  none
attr title  "ping out-of-order arrivals, last"
scalar hierarchical.gw[2].pingTestApp[0] 	pingRxSeq:count 	0
attr interpolationmode  none
attr title  "ping rx seq, count"
scalar hierarchical.gw[2].pingTestApp[0] 	pingTxSeq:count 	0
attr interpolationmode  none
attr title  "ping tx seq, count"
scalar hierarchical.gw[2].pingTestApp[0] 	numLost:last 	-nan
attr interpolationmode  none
attr title  "pings lost, last"
statistic hierarchical.gw[2].pingTestApp[0] 	rtt:histogram
field count 0
field mean -nan
field stddev -nan
field sum 0
field sqrsum 0
field min -nan
field max -nan
attr interpolationmode  none
attr title  "ping round-trip time, histogram"
attr unit  s
bin	-INF	0
bin	-0.5	0
bin	-0.46666666666667	0
bin	-0.43333333333333	0
bin	-0.4	0
bin	-0.36666666666667	0
bin	-0.33333333333333	0
bin	-0.3	0
bin	-0.26666666666667	0
bin	-0.23333333333333	0
bin	-0.2	0
bin	-0.16666666666667	0
bin	-0.13333333333333	0
bin	-0.1	0
bin	-0.066666666666667	0
bin	-0.033333333333333	0
bin	0	0
bin	0.033333333333333	0
bin	0.066666666666667	0
bin	0.1	0
bin	0.13333333333333	0
bin	0.16666666666667	0
bin	0.2	0
bin	0.23333333333333	0
bin	0.26666666666667	0
bin	0.3	0
bin	0.33333333333333	0
bin	0.36666666666667	0
bin	0.4	0
bin	0.43333333333333	0
bin	0.46666666666667	0
bin	0.5	0
scalar hierarchical.gw[3].networkLayer.arp 	failedARPResolution:count 	0
attr title  "ARP failed resolutions, count"
scalar hierarchical.gw[3].networkLayer.arp 	completedARPResolution:count 	8
attr title  "ARP completed resolutions, count"
scalar hierarchical.gw[3].networkLayer.arp 	initiatedARPResolution:count 	4
attr title  "ARP initiated resolutions, count"
scalar hierarchical.gw[3].networkLayer.arp 	sentReply:count 	4
attr title  "ARP replies sent, count"
scalar hierarchical.gw[3].networkLayer.arp 	sentReq:count 	4
attr title  "ARP request sent, count"
scalar hierarchical.gw[3].lo0.lo 	droppedPkBitError:count 	0
attr interpolationmode  none
attr source  dropPkBitError
attr title  "packets dropped/bit error, count"
scalar hierarchical.gw[3].lo0.lo 	droppedPkBitError:sum(packetBytes) 	0
attr interpolationmode  none
attr source  dropPkBitError
attr title  "packets dropped/bit error, sum(packetBytes)"
scalar hierarchical.gw[3].lo0.lo 	rcvdPkFromHL:count 	17
attr interpolationmode  none
attr source  packetReceivedFromUpper
attr title  "packets received from higher layer, count"
scalar hierarchical.gw[3].lo0.lo 	rcvdPkFromHL:sum(packetBytes) 	2004
attr interpolationmode  none
attr source  packetReceivedFromUpper
attr title  "packets received from higher layer, sum(packetBytes)"
scalar hierarchical.gw[3].lo0.lo 	passedUpPk:count 	17
attr interpolationmode  none
attr source  packetSentToUpper
attr title  "packets passed to higher layer, count"
scalar hierarchical.gw[3].lo0.lo 	passedUpPk:sum(packetBytes) 	2004
attr interpolationmode  none
attr source  packetSentToUpper
attr title  "packets passed to higher layer, sum(packetBytes)"
scalar hierarchical.gw[3].wlan[0].mgmt 	dataQueueLen:max 	0
attr interpolationmode  sample-hold
attr title  "data queue length, max"
scalar hierarchical.gw[3].wlan[0].mgmt 	dataQueueLen:timeavg 	0
attr interpolationmode  sample-hold
attr title  "data queue length, timeavg"
scalar hierarchical.gw[3].wlan[0].mgmt 	dropPkByQueue:count 	0
attr interpolationmode  none
attr source  dropPkByQueue
attr title  "packets dropped by queue, count"
scalar hierarchical.gw[3].wlan[0].mgmt 	dropPkByQueue:sum(packetBytes) 	0
attr interpolationmode  none
attr source  dropPkByQueue
attr title  "packets dropped by queue, sum(packetBytes)"
scalar hierarchical.gw[3].wlan[0].mac 	"number of received packets" 	0
scalar hierarchical.gw[3].wlan[0].mac 	"number of collisions" 	0
scalar hierarchical.gw[3].wlan[0].mac 	"number of internal collisions" 	0
scalar hierarchical.gw[3].wlan[0].mac 	"number of retry for AC 0" 	0
scalar hierarchical.gw[3].wlan[0].mac 	"sent and received bits" 	246432
scalar hierarchical.gw[3].wlan[0].mac 	"sent packet within AC 0" 	0
scalar hierarchical.gw[3].wlan[0].mac 	"sent in TXOP " 	0
scalar hierarchical.gw[3].wlan[0].mac 	"sentWithoutRetry AC 0" 	0
scalar hierarchical.gw[3].wlan[0].mac 	"numGivenUp AC 0" 	0
scalar hierarchical.gw[3].wlan[0].mac 	"numDropped AC 0" 	0
scalar hierarchical.gw[3].wlan[0].mac 	rcvdPkFromHL:count 	330
attr interpolationmode  none
attr source  packetReceivedFromUpper
attr title  "packets received from higher layer, count"
scalar hierarchical.gw[3].wlan[0].mac 	rcvdPkFromHL:sum(packetBytes) 	30804
attr interpolationmode  none
attr source  packetReceivedFromUpper
attr title  "packets received from higher layer, sum(packetBytes)"
scalar hierarchical.gw[3].wlan[0].mac 	passedUpPk:count 	0
attr interpolationmode  none
attr source  packetSentToUpper
attr title  "packets passed to higher layer, count"
scalar hierarchical.gw[3].wlan[0].mac 	passedUpPk:sum(packetBytes) 	0
attr interpolationmode  none
attr source  packetSentToUpper
attr title  "packets passed to higher layer, sum(packetBytes)"
scalar hierarchical.gw[3].wlan[0].mac 	rcvdPkFromLL:count 	0
attr interpolationmode  none
attr source  packetReceivedFromLower
attr title  "packets received from lower layer, count"
scalar hierarchical.gw[3].wlan[0].mac 	rcvdPkFromLL:sum(packetBytes) 	0
attr interpolationmode  none
attr source  packetReceivedFromLower
attr title  "packets received from lower layer, sum(packetBytes)"
scalar hierarchical.gw[3].wlan[0].mac 	sentDownPk:count 	330
attr interpolationmode  none
attr source  packetSentToLower
attr title  "packets sent to lower layer, count"
scalar hierarchical.gw[3].wlan[0].mac 	sentDownPk:sum(packetBytes) 	30804
attr interpolationmode  none
attr source  packetSentToLower
attr title  "packets sent to lower layer, sum(packetBytes)"
scalar hierarchical.gw[3].wlan[0].radio 	lossRate:min 	-nan
attr interpolationmode  backward-sample-hold
attr title  "packet loss rate, min"
scalar hierarchical.gw[3].wlan[0].radio 	lossRate:max 	-nan
attr interpolationmode  backward-sample-hold
attr title  "packet loss rate, max"
scalar hierarchical.gw[3].wlan[0].radio 	lossRate:timeavg 	-nan
attr interpolationmode  backward-sample-hold
attr title  "packet loss rate, timeavg"
statistic hierarchical.gw[3].wlan[0].radio 	channelNo:histogram
field count 1
field mean 3
field stddev -nan
field sum 3
field sqrsum 9
field min 3
field max 3
attr interpolationmode  sample-hold
attr title  "channel no, histogram"
bin	-INF	0
bin	2	0
bin	3	1
bin	4	0
scalar hierarchical.gw[3].wlan[0].radio 	bitrate:min 	11000000
attr interpolationmode  sample-hold
attr title  "tx bitrate, min"
attr unit  bps
scalar hierarchical.gw[3].wlan[0].radio 	bitrate:max 	11000000
attr interpolationmode  sample-hold
attr title  "tx bitrate, max"
attr unit  bps
scalar hierarchical.gw[3].wlan[0].radio 	bitrate:timeavg 	11000000
attr interpolationmode  sample-hold
attr title  "tx bitrate, timeavg"
attr unit  bps
scalar hierarchical.gw[3].wlan[0].radio 	radioState:count 	661
attr interpolationmode  sample-hold
attr title  "radio state (enum), count"
scalar hierarchical.gw[3].wlan[1].mgmt 	dataQueueLen:max 	10
attr interpolationmode  sample-hold
attr title  "data queue length, max"
scalar hierarchical.gw[3].wlan[1].mgmt 	dataQueueLen:timeavg 	0.30730827036334
attr interpolationmode  sample-hold
attr title  "data queue length, timeavg"
scalar hierarchical.gw[3].wlan[1].mgmt 	dropPkByQueue:count 	1033
attr interpolationmode  none
attr source  dropPkByQueue
attr title  "packets dropped by queue, count"
scalar hierarchical.gw[3].wlan[1].mgmt 	dropPkByQueue:sum(packetBytes) 	132090
attr interpolationmode  none
attr source  dropPkByQueue
attr title  "packets dropped by queue, sum(packetBytes)"
scalar hierarchical.gw[3].wlan[1].mac 	"number of received packets" 	30324
scalar hierarchical.gw[3].wlan[1].mac 	"number of collisions" 	17767
scalar hierarchical.gw[3].wlan[1].mac 	"number of internal collisions" 	0
scalar hierarchical.gw[3].wlan[1].mac 	"number of retry for AC 0" 	13260
scalar hierarchical.gw[3].wlan[1].mac 	"sent and received bits" 	28690238
scalar hierarchical.gw[3].wlan[1].mac 	"sent packet within AC 0" 	28559
scalar hierarchical.gw[3].wlan[1].mac 	"sent in TXOP " 	0
scalar hierarchical.gw[3].wlan[1].mac 	"sentWithoutRetry AC 0" 	23185
scalar hierarchical.gw[3].wlan[1].mac 	"numGivenUp AC 0" 	488
scalar hierarchical.gw[3].wlan[1].mac 	"numDropped AC 0" 	0
scalar hierarchical.gw[3].wlan[1].mac 	rcvdPkFromHL:count 	29562
attr interpolationmode  none
attr source  packetReceivedFromUpper
attr title  "packets received from higher layer, count"
scalar hierarchical.gw[3].wlan[1].mac 	rcvdPkFromHL:sum(packetBytes) 	3652042
attr interpolationmode  none
attr source  packetReceivedFromUpper
attr title  "packets received from higher layer, sum(packetBytes)"
scalar hierarchical.gw[3].wlan[1].mac 	passedUpPk:count 	30947
attr interpolationmode  none
attr source  packetSentToUpper
attr title  "packets passed to higher layer, count"
scalar hierarchical.gw[3].wlan[1].mac 	passedUpPk:sum(packetBytes) 	3782375
attr interpolationmode  none
attr source  packetSentToUpper
attr title  "packets passed to higher layer, sum(packetBytes)"
scalar hierarchical.gw[3].wlan[1].mac 	rcvdPkFromLL:count 	114008
attr interpolationmode  none
attr source  packetReceivedFromLower
attr title  "packets received from lower layer, count"
scalar hierarchical.gw[3].wlan[1].mac 	rcvdPkFromLL:sum(packetBytes) 	9379664
attr interpolationmode  none
attr source  packetReceivedFromLower
attr title  "packets received from lower layer, sum(packetBytes)"
scalar hierarchical.gw[3].wlan[1].mac 	sentDownPk:count 	73146
attr interpolationmode  none
attr source  packetSentToLower
attr title  "packets sent to lower layer, count"
scalar hierarchical.gw[3].wlan[1].mac 	sentDownPk:sum(packetBytes) 	5746954
attr interpolationmode  none
attr source  packetSentToLower
attr title  "packets sent to lower layer, sum(packetBytes)"
scalar hierarchical.gw[3].wlan[1].radio 	lossRate:min 	0
attr interpolationmode  backward-sample-hold
attr title  "packet loss rate, min"
scalar hierarchical.gw[3].wlan[1].radio 	lossRate:max 	0.54
attr interpolationmode  backward-sample-hold
attr title  "packet loss rate, max"
scalar hierarchical.gw[3].wlan[1].radio 	lossRate:timeavg 	0.072487948116269
attr interpolationmode  backward-sample-hold
attr title  "packet loss rate, timeavg"
statistic hierarchical.gw[3].wlan[1].radio 	channelNo:histogram
field count 1
field mean 5
field stddev -nan
field sum 5
field sqrsum 25
field min 5
field max 5
attr interpolationmode  sample-hold
attr title  "channel no, histogram"
bin	-INF	0
bin	4	0
bin	5	1
bin	6	0
scalar hierarchical.gw[3].wlan[1].radio 	bitrate:min 	11000000
attr interpolationmode  sample-hold
attr title  "tx bitrate, min"
attr unit  bps
scalar hierarchical.gw[3].wlan[1].radio 	bitrate:max 	11000000
attr interpolationmode  sample-hold
attr title  "tx bitrate, max"
attr unit  bps
scalar hierarchical.gw[3].wlan[1].radio 	bitrate:timeavg 	11000000
attr interpolationmode  sample-hold
attr title  "tx bitrate, timeavg"
attr unit  bps
scalar hierarchical.gw[3].wlan[1].radio 	radioState:count 	376461
attr interpolationmode  sample-hold
attr title  "radio state (enum), count"
scalar hierarchical.gw[3].manetrouting 	OLSR_HNA_Messages_(Forwarded) 	0
scalar hierarchical.gw[3].manetrouting 	OLSR_TC_Messages_(Forwarded) 	0
scalar hierarchical.gw[3].manetrouting 	OLSR_Total_HELLO 	219
scalar hierarchical.gw[3].manetrouting 	OLSR_Total_HNA_(originated) 	80
scalar hierarchical.gw[3].manetrouting 	OLSR_Total_TC 	0
scalar hierarchical.gw[3].manetrouting 	OLSR_Total_Messages_Sent 	299
scalar hierarchical.gw[3].backbonemanetrouting 	OLSR_HNA_Messages_(Forwarded) 	0
scalar hierarchical.gw[3].backbonemanetrouting 	OLSR_TC_Messages_(Forwarded) 	131
scalar hierarchical.gw[3].backbonemanetrouting 	OLSR_Total_HELLO 	219
scalar hierarchical.gw[3].backbonemanetrouting 	OLSR_Total_HNA_(originated) 	0
scalar hierarchical.gw[3].backbonemanetrouting 	OLSR_Total_TC 	76
scalar hierarchical.gw[3].backbonemanetrouting 	OLSR_Total_Messages_Sent 	426
scalar hierarchical.gw[3].udp 	droppedPkBadChecksum:count 	0
attr interpolationmode  none
attr title  "packets dropped (checksum error), count"
scalar hierarchical.gw[3].udp 	droppedPkWrongPort:count 	0
attr interpolationmode  none
attr title  "packets dropped (wrong port), count"
scalar hierarchical.gw[3].udp 	passedUpPk:count 	8210
attr interpolationmode  none
attr title  "packets passed up, count"
scalar hierarchical.gw[3].udp 	rcvdPk:count 	8210
attr interpolationmode  none
attr source  rcvdPk
attr title  "packets received, count"
scalar hierarchical.gw[3].udp 	rcvdPk:sum(packetBytes) 	529013
attr interpolationmode  none
attr source  rcvdPk
attr title  "packets received, sum(packetBytes)"
scalar hierarchical.gw[3].udp 	sentPk:count 	8250
attr interpolationmode  none
attr source  sentPk
attr title  "packets sent, count"
scalar hierarchical.gw[3].udp 	sentPk:sum(packetBytes) 	579656
attr interpolationmode  none
attr source  sentPk
attr title  "packets sent, sum(packetBytes)"
scalar hierarchical.gw[3].pingApp[0] 	numOutOfOrderArrivals:last 	-nan
attr interpolationmode  none
attr title  "ping out-of-order arrivals, last"
scalar hierarchical.gw[3].pingApp[0] 	pingRxSeq:count 	0
attr interpolationmode  none
attr title  "ping rx seq, count"
scalar hierarchical.gw[3].pingApp[0] 	pingTxSeq:count 	0
attr interpolationmode  none
attr title  "ping tx seq, count"
scalar hierarchical.gw[3].pingApp[0] 	numLost:last 	-nan
attr interpolationmode  none
attr title  "pings lost, last"
statistic hierarchical.gw[3].pingApp[0] 	rtt:histogram
field count 0
field mean -nan
field stddev -nan
field sum 0
field sqrsum 0
field min -nan
field max -nan
attr interpolationmode  none
attr title  "ping round-trip time, histogram"
attr unit  s
bin	-INF	0
bin	-0.5	0
bin	-0.46666666666667	0
bin	-0.43333333333333	0
bin	-0.4	0
bin	-0.36666666666667	0
bin	-0.33333333333333	0
bin	-0.3	0
bin	-0.26666666666667	0
bin	-0.23333333333333	0
bin	-0.2	0
bin	-0.16666666666667	0
bin	-0.13333333333333	0
bin	-0.1	0
bin	-0.066666666666667	0
bin	-0.033333333333333	0
bin	0	0
bin	0.033333333333333	0
bin	0.066666666666667	0
bin	0.1	0
bin	0.13333333333333	0
bin	0.16666666666667	0
bin	0.2	0
bin	0.23333333333333	0
bin	0.26666666666667	0
bin	0.3	0
bin	0.33333333333333	0
bin	0.36666666666667	0
bin	0.4	0
bin	0.43333333333333	0
bin	0.46666666666667	0
bin	0.5	0
scalar hierarchical.gw[3].pingTestApp[0] 	numOutOfOrderArrivals:last 	-nan
attr interpolationmode  none
attr title  "ping out-of-order arrivals, last"
scalar hierarchical.gw[3].pingTestApp[0] 	pingRxSeq:count 	0
attr interpolationmode  none
attr title  "ping rx seq, count"
scalar hierarchical.gw[3].pingTestApp[0] 	pingTxSeq:count 	0
attr interpolationmode  none
attr title  "ping tx seq, count"
scalar hierarchical.gw[3].pingTestApp[0] 	numLost:last 	-nan
attr interpolationmode  none
attr title  "pings lost, last"
statistic hierarchical.gw[3].pingTestApp[0] 	rtt:histogram
field count 0
field mean -nan
field stddev -nan
field sum 0
field sqrsum 0
field min -nan
field max -nan
attr interpolationmode  none
attr title  "ping round-trip time, histogram"
attr unit  s
bin	-INF	0
bin	-0.5	0
bin	-0.46666666666667	0
bin	-0.43333333333333	0
bin	-0.4	0
bin	-0.36666666666667	0
bin	-0.33333333333333	0
bin	-0.3	0
bin	-0.26666666666667	0
bin	-0.23333333333333	0
bin	-0.2	0
bin	-0.16666666666667	0
bin	-0.13333333333333	0
bin	-0.1	0
bin	-0.066666666666667	0
bin	-0.033333333333333	0
bin	0	0
bin	0.033333333333333	0
bin	0.066666666666667	0
bin	0.1	0
bin	0.13333333333333	0
bin	0.16666666666667	0
bin	0.2	0
bin	0.23333333333333	0
bin	0.26666666666667	0
bin	0.3	0
bin	0.33333333333333	0
bin	0.36666666666667	0
bin	0.4	0
bin	0.43333333333333	0
bin	0.46666666666667	0
bin	0.5	0
scalar hierarchical.gw[4].networkLayer.arp 	failedARPResolution:count 	0
attr title  "ARP failed resolutions, count"
scalar hierarchical.gw[4].networkLayer.arp 	completedARPResolution:count 	51
attr title  "ARP completed resolutions, count"
scalar hierarchical.gw[4].networkLayer.arp 	initiatedARPResolution:count 	1
attr title  "ARP initiated resolutions, count"
scalar hierarchical.gw[4].networkLayer.arp 	sentReply:count 	22
attr title  "ARP replies sent, count"
scalar hierarchical.gw[4].networkLayer.arp 	sentReq:count 	1
attr title  "ARP request sent, count"
scalar hierarchical.gw[4].lo0.lo 	droppedPkBitError:count 	0
attr interpolationmode  none
attr source  dropPkBitError
attr title  "packets dropped/bit error, count"
scalar hierarchical.gw[4].lo0.lo 	droppedPkBitError:sum(packetBytes) 	0
attr interpolationmode  none
attr source  dropPkBitError
attr title  "packets dropped/bit error, sum(packetBytes)"
scalar hierarchical.gw[4].lo0.lo 	rcvdPkFromHL:count 	6829
attr interpolationmode  none
attr source  packetReceivedFromUpper
attr title  "packets received from higher layer, count"
scalar hierarchical.gw[4].lo0.lo 	rcvdPkFromHL:sum(packetBytes) 	624144
attr interpolationmode  none
attr source  packetReceivedFromUpper
attr title  "packets received from higher layer, sum(packetBytes)"
scalar hierarchical.gw[4].lo0.lo 	passedUpPk:count 	6829
attr interpolationmode  none
attr source  packetSentToUpper
attr title  "packets passed to higher layer, count"
scalar hierarchical.gw[4].lo0.lo 	passedUpPk:sum(packetBytes) 	624144
attr interpolationmode  none
attr source  packetSentToUpper
attr title  "packets passed to higher layer, sum(packetBytes)"
scalar hierarchical.gw[4].wlan[0].mgmt 	dataQueueLen:max 	0
attr interpolationmode  sample-hold
attr title  "data queue length, max"
scalar hierarchical.gw[4].wlan[0].mgmt 	dataQueueLen:timeavg 	0
attr interpolationmode  sample-hold
attr title  "data queue length, timeavg"
scalar hierarchical.gw[4].wlan[0].mgmt 	dropPkByQueue:count 	0
attr interpolationmode  none
attr source  dropPkByQueue
attr title  "packets dropped by queue, count"
scalar hierarchical.gw[4].wlan[0].mgmt 	dropPkByQueue:sum(packetBytes) 	0
attr interpolationmode  none
attr source  dropPkByQueue
attr title  "packets dropped by queue, sum(packetBytes)"
scalar hierarchical.gw[4].wlan[0].mac 	"number of received packets" 	4336
scalar hierarchical.gw[4].wlan[0].mac 	"number of collisions" 	281
scalar hierarchical.gw[4].wlan[0].mac 	"number of internal collisions" 	0
scalar hierarchical.gw[4].wlan[0].mac 	"number of retry for AC 0" 	18
scalar hierarchical.gw[4].wlan[0].mac 	"sent and received bits" 	773584
scalar hierarchical.gw[4].wlan[0].mac 	"sent packet within AC 0" 	67
scalar hierarchical.gw[4].wlan[0].mac 	"sent in TXOP " 	0
scalar hierarchical.gw[4].wlan[0].mac 	"sentWithoutRetry AC 0" 	67
scalar hierarchical.gw[4].wlan[0].mac 	"numGivenUp AC 0" 	3
scalar hierarchical.gw[4].wlan[0].mac 	"numDropped AC 0" 	0
scalar hierarchical.gw[4].wlan[0].mac 	rcvdPkFromHL:count 	780
attr interpolationmode  none
attr source  packetReceivedFromUpper
attr title  "packets received from higher layer, count"
scalar hierarchical.gw[4].wlan[0].mac 	rcvdPkFromHL:sum(packetBytes) 	96908
attr interpolationmode  none
attr source  packetReceivedFromUpper
attr title  "packets received from higher layer, sum(packetBytes)"
scalar hierarchical.gw[4].wlan[0].mac 	passedUpPk:count 	7620
attr interpolationmode  none
attr source  packetSentToUpper
attr title  "packets passed to higher layer, count"
scalar hierarchical.gw[4].wlan[0].mac 	passedUpPk:sum(packetBytes) 	1173412
attr interpolationmode  none
attr source  packetSentToUpper
attr title  "packets passed to higher layer, sum(packetBytes)"
scalar hierarchical.gw[4].wlan[0].mac 	rcvdPkFromLL:count 	18913
attr interpolationmode  none
attr source  packetReceivedFromLower
attr title  "packets received from lower layer, count"
scalar hierarchical.gw[4].wlan[0].mac 	rcvdPkFromLL:sum(packetBytes) 	2494330
attr interpolationmode  none
attr source  packetReceivedFromLower
attr title  "packets received from lower layer, sum(packetBytes)"
scalar hierarchical.gw[4].wlan[0].mac 	sentDownPk:count 	5134
attr interpolationmode  none
attr source  packetSentToLower
attr title  "packets sent to lower layer, count"
scalar hierarchical.gw[4].wlan[0].mac 	sentDownPk:sum(packetBytes) 	158872
attr interpolationmode  none
attr source  packetSentToLower
attr title  "packets sent to lower layer, sum(packetBytes)"
scalar hierarchical.gw[4].wlan[0].radio 	lossRate:min 	0
attr interpolationmode  backward-sample-hold
attr title  "packet loss rate, min"
scalar hierarchical.gw[4].wlan[0].radio 	lossRate:max 	0.16
attr interpolationmode  backward-sample-hold
attr title  "packet loss rate, max"
scalar hierarchical.gw[4].wlan[0].radio 	lossRate:timeavg 	0.0087752626426082
attr interpolationmode  backward-sample-hold
attr title  "packet loss rate, timeavg"
statistic hierarchical.gw[4].wlan[0].radio 	channelNo:histogram
field count 1
field mean 4
field stddev -nan
field sum 4
field sqrsum 16
field min 4
field max 4
attr interpolationmode  sample-hold
attr title  "channel no, histogram"
bin	-INF	0
bin	3	0
bin	4	1
bin	5	0
scalar hierarchical.gw[4].wlan[0].radio 	bitrate:min 	11000000
attr interpolationmode  sample-hold
attr title  "tx bitrate, min"
attr unit  bps
scalar hierarchical.gw[4].wlan[0].radio 	bitrate:max 	11000000
attr interpolationmode  sample-hold
attr title  "tx bitrate, max"
attr unit  bps
scalar hierarchical.gw[4].wlan[0].radio 	bitrate:timeavg 	11000000
attr interpolationmode  sample-hold
attr title  "tx bitrate, timeavg"
attr unit  bps
scalar hierarchical.gw[4].wlan[0].radio 	radioState:count 	48022
attr interpolationmode  sample-hold
attr title  "radio state (enum), count"
scalar hierarchical.gw[4].wlan[1].mgmt 	dataQueueLen:max 	10
attr interpolationmode  sample-hold
attr title  "data queue length, max"
scalar hierarchical.gw[4].wlan[1].mgmt 	dataQueueLen:timeavg 	0.26489702481817
attr interpolationmode  sample-hold
attr title  "data queue length, timeavg"
scalar hierarchical.gw[4].wlan[1].mgmt 	dropPkByQueue:count 	9344
attr interpolationmode  none
attr source  dropPkByQueue
attr title  "packets dropped by queue, count"
scalar hierarchical.gw[4].wlan[1].mgmt 	dropPkByQueue:sum(packetBytes) 	1219732
attr interpolationmode  none
attr source  dropPkByQueue
attr title  "packets dropped by queue, sum(packetBytes)"
scalar hierarchical.gw[4].wlan[1].mac 	"number of received packets" 	11497
scalar hierarchical.gw[4].wlan[1].mac 	"number of collisions" 	1342
scalar hierarchical.gw[4].wlan[1].mac 	"number of internal collisions" 	0
scalar hierarchical.gw[4].wlan[1].mac 	"number of retry for AC 0" 	15710
scalar hierarchical.gw[4].wlan[1].mac 	"sent and received bits" 	11011599
scalar hierarchical.gw[4].wlan[1].mac 	"sent packet within AC 0" 	11856
scalar hierarchical.gw[4].wlan[1].mac 	"sent in TXOP " 	0
scalar hierarchical.gw[4].wlan[1].mac 	"sentWithoutRetry AC 0" 	7263
scalar hierarchical.gw[4].wlan[1].mac 	"numGivenUp AC 0" 	602
scalar hierarchical.gw[4].wlan[1].mac 	"numDropped AC 0" 	0
scalar hierarchical.gw[4].wlan[1].mac 	rcvdPkFromHL:count 	12735
attr interpolationmode  none
attr source  packetReceivedFromUpper
attr title  "packets received from higher layer, count"
scalar hierarchical.gw[4].wlan[1].mac 	rcvdPkFromHL:sum(packetBytes) 	1447205
attr interpolationmode  none
attr source  packetReceivedFromUpper
attr title  "packets received from higher layer, sum(packetBytes)"
scalar hierarchical.gw[4].wlan[1].mac 	passedUpPk:count 	11977
attr interpolationmode  none
attr source  packetSentToUpper
attr title  "packets passed to higher layer, count"
scalar hierarchical.gw[4].wlan[1].mac 	passedUpPk:sum(packetBytes) 	1531318
attr interpolationmode  none
attr source  packetSentToUpper
attr title  "packets passed to higher layer, sum(packetBytes)"
scalar hierarchical.gw[4].wlan[1].mac 	rcvdPkFromLL:count 	72663
attr interpolationmode  none
attr source  packetReceivedFromLower
attr title  "packets received from lower layer, count"
scalar hierarchical.gw[4].wlan[1].mac 	rcvdPkFromLL:sum(packetBytes) 	5695345
attr interpolationmode  none
attr source  packetReceivedFromLower
attr title  "packets received from lower layer, sum(packetBytes)"
scalar hierarchical.gw[4].wlan[1].mac 	sentDownPk:count 	39942
attr interpolationmode  none
attr source  packetSentToLower
attr title  "packets sent to lower layer, count"
scalar hierarchical.gw[4].wlan[1].mac 	sentDownPk:sum(packetBytes) 	3414169
attr interpolationmode  none
attr source  packetSentToLower
attr title  "packets sent to lower layer, sum(packetBytes)"
scalar hierarchical.gw[4].wlan[1].radio 	lossRate:min 	0
attr interpolationmode  backward-sample-hold
attr title  "packet loss rate, min"
scalar hierarchical.gw[4].wlan[1].radio 	lossRate:max 	0.14
attr interpolationmode  backward-sample-hold
attr title  "packet loss rate, max"
scalar hierarchical.gw[4].wlan[1].radio 	lossRate:timeavg 	0.0082438020934595
attr interpolationmode  backward-sample-hold
attr title  "packet loss rate, timeavg"
statistic hierarchical.gw[4].wlan[1].radio 	channelNo:histogram
field count 1
field mean 5
field stddev -nan
field sum 5
field sqrsum 25
field min 5
field max 5
attr interpolationmode  sample-hold
attr title  "channel no, histogram"
bin	-INF	0
bin	4	0
bin	5	1
bin	6	0
scalar hierarchical.gw[4].wlan[1].radio 	bitrate:min 	11000000
attr interpolationmode  sample-hold
attr title  "tx bitrate, min"
attr unit  bps
scalar hierarchical.gw[4].wlan[1].radio 	bitrate:max 	11000000
attr interpolationmode  sample-hold
attr title  "tx bitrate, max"
attr unit  bps
scalar hierarchical.gw[4].wlan[1].radio 	bitrate:timeavg 	11000000
attr interpolationmode  sample-hold
attr title  "tx bitrate, timeavg"
attr unit  bps
scalar hierarchical.gw[4].wlan[1].radio 	radioState:count 	227115
attr interpolationmode  sample-hold
attr title  "radio state (enum), count"
scalar hierarchical.gw[4].manetrouting 	OLSR_HNA_Messages_(Forwarded) 	0
scalar hierarchical.gw[4].manetrouting 	OLSR_TC_Messages_(Forwarded) 	282
scalar hierarchical.gw[4].manetrouting 	OLSR_Total_HELLO 	219
scalar hierarchical.gw[4].manetrouting 	OLSR_Total_HNA_(originated) 	80
scalar hierarchical.gw[4].manetrouting 	OLSR_Total_TC 	74
scalar hierarchical.gw[4].manetrouting 	OLSR_Total_Messages_Sent 	655
scalar hierarchical.gw[4].backbonemanetrouting 	OLSR_HNA_Messages_(Forwarded) 	0
scalar hierarchical.gw[4].backbonemanetrouting 	OLSR_TC_Messages_(Forwarded) 	195
scalar hierarchical.gw[4].backbonemanetrouting 	OLSR_Total_HELLO 	218
scalar hierarchical.gw[4].backbonemanetrouting 	OLSR_Total_HNA_(originated) 	0
scalar hierarchical.gw[4].backbonemanetrouting 	OLSR_Total_TC 	0
scalar hierarchical.gw[4].backbonemanetrouting 	OLSR_Total_Messages_Sent 	413
scalar hierarchical.gw[4].udp 	droppedPkBadChecksum:count 	0
attr interpolationmode  none
attr title  "packets dropped (checksum error), count"
scalar hierarchical.gw[4].udp 	droppedPkWrongPort:count 	0
attr interpolationmode  none
attr title  "packets dropped (wrong port), count"
scalar hierarchical.gw[4].udp 	passedUpPk:count 	13805
attr interpolationmode  none
attr title  "packets passed up, count"
scalar hierarchical.gw[4].udp 	rcvdPk:count 	13805
attr interpolationmode  none
attr source  rcvdPk
attr title  "packets received, count"
scalar hierarchical.gw[4].udp 	rcvdPk:sum(packetBytes) 	938788
attr interpolationmode  none
attr source  rcvdPk
attr title  "packets received, sum(packetBytes)"
scalar hierarchical.gw[4].udp 	sentPk:count 	28627
attr interpolationmode  none
attr source  sentPk
attr title  "packets sent, count"
scalar hierarchical.gw[4].udp 	sentPk:sum(packetBytes) 	1775857
attr interpolationmode  none
attr source  sentPk
attr title  "packets sent, sum(packetBytes)"
scalar hierarchical.gw[4].pingApp[0] 	numOutOfOrderArrivals:last 	-nan
attr interpolationmode  none
attr title  "ping out-of-order arrivals, last"
scalar hierarchical.gw[4].pingApp[0] 	pingRxSeq:count 	0
attr interpolationmode  none
attr title  "ping rx seq, count"
scalar hierarchical.gw[4].pingApp[0] 	pingTxSeq:count 	0
attr interpolationmode  none
attr title  "ping tx seq, count"
scalar hierarchical.gw[4].pingApp[0] 	numLost:last 	-nan
attr interpolationmode  none
attr title  "pings lost, last"
statistic hierarchical.gw[4].pingApp[0] 	rtt:histogram
field count 0
field mean -nan
field stddev -nan
field sum 0
field sqrsum 0
field min -nan
field max -nan
attr interpolationmode  none
attr title  "ping round-trip time, histogram"
attr unit  s
bin	-INF	0
bin	-0.5	0
bin	-0.46666666666667	0
bin	-0.43333333333333	0
bin	-0.4	0
bin	-0.36666666666667	0
bin	-0.33333333333333	0
bin	-0.3	0
bin	-0.26666666666667	0
bin	-0.23333333333333	0
bin	-0.2	0
bin	-0.16666666666667	0
bin	-0.13333333333333	0
bin	-0.1	0
bin	-0.066666666666667	0
bin	-0.033333333333333	0
bin	0	0
bin	0.033333333333333	0
bin	0.066666666666667	0
bin	0.1	0
bin	0.13333333333333	0
bin	0.16666666666667	0
bin	0.2	0
bin	0.23333333333333	0
bin	0.26666666666667	0
bin	0.3	0
bin	0.33333333333333	0
bin	0.36666666666667	0
bin	0.4	0
bin	0.43333333333333	0
bin	0.46666666666667	0
bin	0.5	0
scalar hierarchical.gw[4].pingTestApp[0] 	numOutOfOrderArrivals:last 	-nan
attr interpolationmode  none
attr title  "ping out-of-order arrivals, last"
scalar hierarchical.gw[4].pingTestApp[0] 	pingRxSeq:count 	0
attr interpolationmode  none
attr title  "ping rx seq, count"
scalar hierarchical.gw[4].pingTestApp[0] 	pingTxSeq:count 	0
attr interpolationmode  none
attr title  "ping tx seq, count"
scalar hierarchical.gw[4].pingTestApp[0] 	numLost:last 	-nan
attr interpolationmode  none
attr title  "pings lost, last"
statistic hierarchical.gw[4].pingTestApp[0] 	rtt:histogram
field count 0
field mean -nan
field stddev -nan
field sum 0
field sqrsum 0
field min -nan
field max -nan
attr interpolationmode  none
attr title  "ping round-trip time, histogram"
attr unit  s
bin	-INF	0
bin	-0.5	0
bin	-0.46666666666667	0
bin	-0.43333333333333	0
bin	-0.4	0
bin	-0.36666666666667	0
bin	-0.33333333333333	0
bin	-0.3	0
bin	-0.26666666666667	0
bin	-0.23333333333333	0
bin	-0.2	0
bin	-0.16666666666667	0
bin	-0.13333333333333	0
bin	-0.1	0
bin	-0.066666666666667	0
bin	-0.033333333333333	0
bin	0	0
bin	0.033333333333333	0
bin	0.066666666666667	0
bin	0.1	0
bin	0.13333333333333	0
bin	0.16666666666667	0
bin	0.2	0
bin	0.23333333333333	0
bin	0.26666666666667	0
bin	0.3	0
bin	0.33333333333333	0
bin	0.36666666666667	0
bin	0.4	0
bin	0.43333333333333	0
bin	0.46666666666667	0
bin	0.5	0
scalar hierarchical.host[0].networkLayer.arp 	failedARPResolution:count 	0
attr title  "ARP failed resolutions, count"
scalar hierarchical.host[0].networkLayer.arp 	completedARPResolution:count 	24
attr title  "ARP completed resolutions, count"
scalar hierarchical.host[0].networkLayer.arp 	initiatedARPResolution:count 	6
attr title  "ARP initiated resolutions, count"
scalar hierarchical.host[0].networkLayer.arp 	sentReply:count 	5
attr title  "ARP replies sent, count"
scalar hierarchical.host[0].networkLayer.arp 	sentReq:count 	6
attr title  "ARP request sent, count"
scalar hierarchical.host[0].lo0.lo 	droppedPkBitError:count 	0
attr interpolationmode  none
attr source  dropPkBitError
attr title  "packets dropped/bit error, count"
scalar hierarchical.host[0].lo0.lo 	droppedPkBitError:sum(packetBytes) 	0
attr interpolationmode  none
attr source  dropPkBitError
attr title  "packets dropped/bit error, sum(packetBytes)"
scalar hierarchical.host[0].lo0.lo 	rcvdPkFromHL:count 	0
attr interpolationmode  none
attr source  packetReceivedFromUpper
attr title  "packets received from higher layer, count"
scalar hierarchical.host[0].lo0.lo 	rcvdPkFromHL:sum(packetBytes) 	0
attr interpolationmode  none
attr source  packetReceivedFromUpper
attr title  "packets received from higher layer, sum(packetBytes)"
scalar hierarchical.host[0].lo0.lo 	passedUpPk:count 	0
attr interpolationmode  none
attr source  packetSentToUpper
attr title  "packets passed to higher layer, count"
scalar hierarchical.host[0].lo0.lo 	passedUpPk:sum(packetBytes) 	0
attr interpolationmode  none
attr source  packetSentToUpper
attr title  "packets passed to higher layer, sum(packetBytes)"
scalar hierarchical.host[0].wlan[0].mgmt 	dataQueueLen:max 	0
attr interpolationmode  sample-hold
attr title  "data queue length, max"
scalar hierarchical.host[0].wlan[0].mgmt 	dataQueueLen:timeavg 	0
attr interpolationmode  sample-hold
attr title  "data queue length, timeavg"
scalar hierarchical.host[0].wlan[0].mgmt 	dropPkByQueue:count 	0
attr interpolationmode  none
attr source  dropPkByQueue
attr title  "packets dropped by queue, count"
scalar hierarchical.host[0].wlan[0].mgmt 	dropPkByQueue:sum(packetBytes) 	0
attr interpolationmode  none
attr source  dropPkByQueue
attr title  "packets dropped by queue, sum(packetBytes)"
scalar hierarchical.host[0].wlan[0].mac 	"number of received packets" 	1062
scalar hierarchical.host[0].wlan[0].mac 	"number of collisions" 	328
scalar hierarchical.host[0].wlan[0].mac 	"number of internal collisions" 	0
scalar hierarchical.host[0].wlan[0].mac 	"number of retry for AC 0" 	178
scalar hierarchical.host[0].wlan[0].mac 	"sent and received bits" 	2755072
scalar hierarchical.host[0].wlan[0].mac 	"sent packet within AC 0" 	1627
scalar hierarchical.host[0].wlan[0].mac 	"sent in TXOP " 	0
scalar hierarchical.host[0].wlan[0].mac 	"sentWithoutRetry AC 0" 	1565
scalar hierarchical.host[0].wlan[0].mac 	"numGivenUp AC 0" 	4
scalar hierarchical.host[0].wlan[0].mac 	"numDropped AC 0" 	0
scalar hierarchical.host[0].wlan[0].mac 	rcvdPkFromHL:count 	1948
attr interpolationmode  none
attr source  packetReceivedFromUpper
attr title  "packets received from higher layer, count"
scalar hierarchical.host[0].wlan[0].mac 	rcvdPkFromHL:sum(packetBytes) 	345144
attr interpolationmode  none
attr source  packetReceivedFromUpper
attr title  "packets received from higher layer, sum(packetBytes)"
scalar hierarchical.host[0].wlan[0].mac 	passedUpPk:count 	3113
attr interpolationmode  none
attr source  packetSentToUpper
attr title  "packets passed to higher layer, count"
scalar hierarchical.host[0].wlan[0].mac 	passedUpPk:sum(packetBytes) 	442334
attr interpolationmode  none
attr source  packetSentToUpper
attr title  "packets passed to higher layer, sum(packetBytes)"
scalar hierarchical.host[0].wlan[0].mac 	rcvdPkFromLL:count 	21767
attr interpolationmode  none
attr source  packetReceivedFromLower
attr title  "packets received from lower layer, count"
scalar hierarchical.host[0].wlan[0].mac 	rcvdPkFromLL:sum(packetBytes) 	2188862
attr interpolationmode  none
attr source  packetReceivedFromLower
attr title  "packets received from lower layer, sum(packetBytes)"
scalar hierarchical.host[0].wlan[0].mac 	sentDownPk:count 	3188
attr interpolationmode  none
attr source  packetSentToLower
attr title  "packets sent to lower layer, count"
scalar hierarchical.host[0].wlan[0].mac 	sentDownPk:sum(packetBytes) 	393472
attr interpolationmode  none
attr source  packetSentToLower
attr title  "packets sent to lower layer, sum(packetBytes)"
scalar hierarchical.host[0].wlan[0].radio 	lossRate:min 	0
attr interpolationmode  backward-sample-hold
attr title  "packet loss rate, min"
scalar hierarchical.host[0].wlan[0].radio 	lossRate:max 	0.16
attr interpolationmode  backward-sample-hold
attr title  "packet loss rate, max"
scalar hierarchical.host[0].wlan[0].radio 	lossRate:timeavg 	0.0082270247273884
attr interpolationmode  backward-sample-hold
attr title  "packet loss rate, timeavg"
statistic hierarchical.host[0].wlan[0].radio 	channelNo:histogram
field count 1
field mean 0
field stddev -nan
field sum 0
field sqrsum 0
field min 0
field max 0
attr interpolationmode  sample-hold
attr title  "channel no, histogram"
bin	-INF	0
bin	-0.5	0
bin	-0.46666666666667	0
bin	-0.43333333333333	0
bin	-0.4	0
bin	-0.36666666666667	0
bin	-0.33333333333333	0
bin	-0.3	0
bin	-0.26666666666667	0
bin	-0.23333333333333	0
bin	-0.2	0
bin	-0.16666666666667	0
bin	-0.13333333333333	0
bin	-0.1	0
bin	-0.066666666666667	0
bin	-0.033333333333333	0
bin	0	1
bin	0.033333333333333	0
bin	0.066666666666667	0
bin	0.1	0
bin	0.13333333333333	0
bin	0.16666666666667	0
bin	0.2	0
bin	0.23333333333333	0
bin	0.26666666666667	0
bin	0.3	0
bin	0.33333333333333	0
bin	0.36666666666667	0
bin	0.4	0
bin	0.43333333333333	0
bin	0.46666666666667	0
bin	0.5	0
scalar hierarchical.host[0].wlan[0].radio 	bitrate:min 	11000000
attr interpolationmode  sample-hold
attr title  "tx bitrate, min"
attr unit  bps
scalar hierarchical.host[0].wlan[0].radio 	bitrate:max 	11000000
attr interpolationmode  sample-hold
attr title  "tx bitrate, max"
attr unit  bps
scalar hierarchical.host[0].wlan[0].radio 	bitrate:timeavg 	11000000
attr interpolationmode  sample-hold
attr title  "tx bitrate, timeavg"
attr unit  bps
scalar hierarchical.host[0].wlan[0].radio 	radioState:count 	50048
attr interpolationmode  sample-hold
attr title  "radio state (enum), count"
[...]
attr source  packetReceivedFromUpper
attr title  "packets received from higher layer, sum(packetBytes)"
scalar hierarchical.host[29].lo0.lo 	passedUpPk:count 	0
attr interpolationmode  none
attr source  packetSentToUpper
attr title  "packets passed to higher layer, count"
scalar hierarchical.host[29].lo0.lo 	passedUpPk:sum(packetBytes) 	0
attr interpolationmode  none
attr source  packetSentToUpper
attr title  "packets passed to higher layer, sum(packetBytes)"
scalar hierarchical.host[29].wlan[0].mgmt 	dataQueueLen:max 	1
attr interpolationmode  sample-hold
attr title  "data queue length, max"
scalar hierarchical.host[29].wlan[0].mgmt 	dataQueueLen:timeavg 	1.3984296366205e-05
attr interpolationmode  sample-hold
attr title  "data queue length, timeavg"
scalar hierarchical.host[29].wlan[0].mgmt 	dropPkByQueue:count 	0
attr interpolationmode  none
attr source  dropPkByQueue
attr title  "packets dropped by queue, count"
scalar hierarchical.host[29].wlan[0].mgmt 	dropPkByQueue:sum(packetBytes) 	0
attr interpolationmode  none
attr source  dropPkByQueue
attr title  "packets dropped by queue, sum(packetBytes)"
scalar hierarchical.host[29].wlan[0].mac 	"number of received packets" 	892
scalar hierarchical.host[29].wlan[0].mac 	"number of collisions" 	180
scalar hierarchical.host[29].wlan[0].mac 	"number of internal collisions" 	0
scalar hierarchical.host[29].wlan[0].mac 	"number of retry for AC 0" 	414
scalar hierarchical.host[29].wlan[0].mac 	"sent and received bits" 	2483584
scalar hierarchical.host[29].wlan[0].mac 	"sent packet within AC 0" 	1405
scalar hierarchical.host[29].wlan[0].mac 	"sent in TXOP " 	0
scalar hierarchical.host[29].wlan[0].mac 	"sentWithoutRetry AC 0" 	1374
scalar hierarchical.host[29].wlan[0].mac 	"numGivenUp AC 0" 	57
scalar hierarchical.host[29].wlan[0].mac 	"numDropped AC 0" 	0
scalar hierarchical.host[29].wlan[0].mac 	rcvdPkFromHL:count 	1835
attr interpolationmode  none
attr source  packetReceivedFromUpper
attr title  "packets received from higher layer, count"
scalar hierarchical.host[29].wlan[0].mac 	rcvdPkFromHL:sum(packetBytes) 	321278
attr interpolationmode  none
attr source  packetReceivedFromUpper
attr title  "packets received from higher layer, sum(packetBytes)"
scalar hierarchical.host[29].wlan[0].mac 	passedUpPk:count 	3412
attr interpolationmode  none
attr source  packetSentToUpper
attr title  "packets passed to higher layer, count"
scalar hierarchical.host[29].wlan[0].mac 	passedUpPk:sum(packetBytes) 	470664
attr interpolationmode  none
attr source  packetSentToUpper
attr title  "packets passed to higher layer, sum(packetBytes)"
scalar hierarchical.host[29].wlan[0].mac 	rcvdPkFromLL:count 	24063
attr interpolationmode  none
attr source  packetReceivedFromLower
attr title  "packets received from lower layer, count"
scalar hierarchical.host[29].wlan[0].mac 	rcvdPkFromLL:sum(packetBytes) 	2504218
attr interpolationmode  none
attr source  packetReceivedFromLower
attr title  "packets received from lower layer, sum(packetBytes)"
scalar hierarchical.host[29].wlan[0].mac 	sentDownPk:count 	3141
attr interpolationmode  none
attr source  packetSentToLower
attr title  "packets sent to lower layer, count"
scalar hierarchical.host[29].wlan[0].mac 	sentDownPk:sum(packetBytes) 	412426
attr interpolationmode  none
attr source  packetSentToLower
attr title  "packets sent to lower layer, sum(packetBytes)"
scalar hierarchical.host[29].wlan[0].radio 	lossRate:min 	0
attr interpolationmode  backward-sample-hold
attr title  "packet loss rate, min"
scalar hierarchical.host[29].wlan[0].radio 	lossRate:max 	0.18
attr interpolationmode  backward-sample-hold
attr title  "packet loss rate, max"
scalar hierarchical.host[29].wlan[0].radio 	lossRate:timeavg 	0.0041988002858947
attr interpolationmode  backward-sample-hold
attr title  "packet loss rate, timeavg"
statistic hierarchical.host[29].wlan[0].radio 	channelNo:histogram
field count 1
field mean 2
field stddev -nan
field sum 2
field sqrsum 4
field min 2
field max 2
attr interpolationmode  sample-hold
attr title  "channel no, histogram"
bin	-INF	0
bin	1	0
bin	2	1
bin	3	0
scalar hierarchical.host[29].wlan[0].radio 	bitrate:min 	11000000
attr interpolationmode  sample-hold
attr title  "tx bitrate, min"
attr unit  bps
scalar hierarchical.host[29].wlan[0].radio 	bitrate:max 	11000000
attr interpolationmode  sample-hold
attr title  "tx bitrate, max"
attr unit  bps
scalar hierarchical.host[29].wlan[0].radio 	bitrate:timeavg 	11000000
attr interpolationmode  sample-hold
attr title  "tx bitrate, timeavg"
attr unit  bps
scalar hierarchical.host[29].wlan[0].radio 	radioState:count 	54380
attr interpolationmode  sample-hold
attr title  "radio state (enum), count"
scalar hierarchical.host[29].pingApp[0] 	numOutOfOrderArrivals:last 	-nan
attr interpolationmode  none
attr title  "ping out-of-order arrivals, last"
scalar hierarchical.host[29].pingApp[0] 	pingRxSeq:count 	0
attr interpolationmode  none
attr title  "ping rx seq, count"
scalar hierarchical.host[29].pingApp[0] 	pingTxSeq:count 	0
attr interpolationmode  none
attr title  "ping tx seq, count"
scalar hierarchical.host[29].pingApp[0] 	numLost:last 	-nan
attr interpolationmode  none
attr title  "pings lost, last"
statistic hierarchical.host[29].pingApp[0] 	rtt:histogram
field count 0
field mean -nan
field stddev -nan
field sum 0
field sqrsum 0
field min -nan
field max -nan
attr interpolationmode  none
attr title  "ping round-trip time, histogram"
attr unit  s
bin	-INF	0
bin	-0.5	0
bin	-0.46666666666667	0
bin	-0.43333333333333	0
bin	-0.4	0
bin	-0.36666666666667	0
bin	-0.33333333333333	0
bin	-0.3	0
bin	-0.26666666666667	0
bin	-0.23333333333333	0
bin	-0.2	0
bin	-0.16666666666667	0
bin	-0.13333333333333	0
bin	-0.1	0
bin	-0.066666666666667	0
bin	-0.033333333333333	0
bin	0	0
bin	0.033333333333333	0
bin	0.066666666666667	0
bin	0.1	0
bin	0.13333333333333	0
bin	0.16666666666667	0
bin	0.2	0
bin	0.23333333333333	0
bin	0.26666666666667	0
bin	0.3	0
bin	0.33333333333333	0
bin	0.36666666666667	0
bin	0.4	0
bin	0.43333333333333	0
bin	0.46666666666667	0
bin	0.5	0
scalar hierarchical.host[29].pingTestApp[0] 	"Pings sent" 	571
scalar hierarchical.host[29].pingTestApp[0] 	"ping loss rate (%)" 	100
scalar hierarchical.host[29].pingTestApp[0] 	"ping out-of-order rate (%)" 	0
scalar hierarchical.host[29].pingTestApp[0] 	numOutOfOrderArrivals:last 	-nan
attr interpolationmode  none
attr title  "ping out-of-order arrivals, last"
scalar hierarchical.host[29].pingTestApp[0] 	pingRxSeq:count 	0
attr interpolationmode  none
attr title  "ping rx seq, count"
scalar hierarchical.host[29].pingTestApp[0] 	pingTxSeq:count 	571
attr interpolationmode  none
attr title  "ping tx seq, count"
scalar hierarchical.host[29].pingTestApp[0] 	numLost:last 	-nan
attr interpolationmode  none
attr title  "pings lost, last"
statistic hierarchical.host[29].pingTestApp[0] 	rtt:histogram
field count 0
field mean -nan
field stddev -nan
field sum 0
field sqrsum 0
field min -nan
field max -nan
attr interpolationmode  none
attr title  "ping round-trip time, histogram"
attr unit  s
bin	-INF	0
bin	-0.5	0
bin	-0.46666666666667	0
bin	-0.43333333333333	0
bin	-0.4	0
bin	-0.36666666666667	0
bin	-0.33333333333333	0
bin	-0.3	0
bin	-0.26666666666667	0
bin	-0.23333333333333	0
bin	-0.2	0
bin	-0.16666666666667	0
bin	-0.13333333333333	0
bin	-0.1	0
bin	-0.066666666666667	0
bin	-0.033333333333333	0
bin	0	0
bin	0.033333333333333	0
bin	0.066666666666667	0
bin	0.1	0
bin	0.13333333333333	0
bin	0.16666666666667	0
bin	0.2	0
bin	0.23333333333333	0
bin	0.26666666666667	0
bin	0.3	0
bin	0.33333333333333	0
bin	0.36666666666667	0
bin	0.4	0
bin	0.43333333333333	0
bin	0.46666666666667	0
bin	0.5	0
scalar hierarchical.host[29].manetrouting 	OLSR_HNA_Messages_(Forwarded) 	80
scalar hierarchical.host[29].manetrouting 	OLSR_TC_Messages_(Forwarded) 	245
scalar hierarchical.host[29].manetrouting 	OLSR_Total_HELLO 	219
scalar hierarchical.host[29].manetrouting 	OLSR_Total_HNA_(originated) 	0
scalar hierarchical.host[29].manetrouting 	OLSR_Total_TC 	28
scalar hierarchical.host[29].manetrouting 	OLSR_Total_Messages_Sent 	572
scalar hierarchical.globalObserver.globalStatistics 	"GlobalStatistics: Simulation Time" 	381.289545099
scalar hierarchical.globalObserver.globalStatistics 	"BaseApp (bootstrapList): Received Bytes/s from Overlay.mean" 	0
scalar hierarchical.globalObserver.globalStatistics 	"BaseApp (bootstrapList): Received Bytes/s from UDP.mean" 	0
scalar hierarchical.globalObserver.globalStatistics 	"BaseApp (bootstrapList): Received Messages/s from Overlay.mean" 	0
scalar hierarchical.globalObserver.globalStatistics 	"BaseApp (bootstrapList): Received Messages/s from UDP.mean" 	0
scalar hierarchical.globalObserver.globalStatistics 	"BaseApp (bootstrapList): Sent Bytes/s to Overlay.mean" 	0
scalar hierarchical.globalObserver.globalStatistics 	"BaseApp (bootstrapList): Sent Bytes/s to UDP.mean" 	0
scalar hierarchical.globalObserver.globalStatistics 	"BaseApp (bootstrapList): Sent Messages/s to Overlay.mean" 	0
scalar hierarchical.globalObserver.globalStatistics 	"BaseApp (bootstrapList): Sent Messages/s to UDP.mean" 	0
scalar hierarchical.globalObserver.globalStatistics 	"BaseApp (dht): Received Bytes/s from Overlay.mean" 	664.5558047108
scalar hierarchical.globalObserver.globalStatistics 	"BaseApp (dht): Received Bytes/s from UDP.mean" 	0
scalar hierarchical.globalObserver.globalStatistics 	"BaseApp (dht): Received Messages/s from Overlay.mean" 	11.010007495693
scalar hierarchical.globalObserver.globalStatistics 	"BaseApp (dht): Received Messages/s from UDP.mean" 	0
scalar hierarchical.globalObserver.globalStatistics 	"BaseApp (dht): Sent Bytes/s to Overlay.mean" 	1311.4557808047
scalar hierarchical.globalObserver.globalStatistics 	"BaseApp (dht): Sent Bytes/s to UDP.mean" 	0
scalar hierarchical.globalObserver.globalStatistics 	"BaseApp (dht): Sent Messages/s to Overlay.mean" 	21.449073046339
scalar hierarchical.globalObserver.globalStatistics 	"BaseApp (dht): Sent Messages/s to UDP.mean" 	0
scalar hierarchical.globalObserver.globalStatistics 	"BaseApp (dht4routing): Received Bytes/s from Overlay.mean" 	0
scalar hierarchical.globalObserver.globalStatistics 	"BaseApp (dht4routing): Received Bytes/s from UDP.mean" 	0
scalar hierarchical.globalObserver.globalStatistics 	"BaseApp (dht4routing): Received Messages/s from Overlay.mean" 	0
scalar hierarchical.globalObserver.globalStatistics 	"BaseApp (dht4routing): Received Messages/s from UDP.mean" 	0
scalar hierarchical.globalObserver.globalStatistics 	"BaseApp (dht4routing): Sent Bytes/s to Overlay.mean" 	0
scalar hierarchical.globalObserver.globalStatistics 	"BaseApp (dht4routing): Sent Bytes/s to UDP.mean" 	0
scalar hierarchical.globalObserver.globalStatistics 	"BaseApp (dht4routing): Sent Messages/s to Overlay.mean" 	0
scalar hierarchical.globalObserver.globalStatistics 	"BaseApp (dht4routing): Sent Messages/s to UDP.mean" 	0
scalar hierarchical.globalObserver.globalStatistics 	"BaseApp (neighborCache): Received Bytes/s from Overlay.mean" 	0
scalar hierarchical.globalObserver.globalStatistics 	"BaseApp (neighborCache): Received Bytes/s from UDP.mean" 	0
scalar hierarchical.globalObserver.globalStatistics 	"BaseApp (neighborCache): Received Messages/s from Overlay.mean" 	0
scalar hierarchical.globalObserver.globalStatistics 	"BaseApp (neighborCache): Received Messages/s from UDP.mean" 	0
scalar hierarchical.globalObserver.globalStatistics 	"BaseApp (neighborCache): Sent Bytes/s to Overlay.mean" 	0
scalar hierarchical.globalObserver.globalStatistics 	"BaseApp (neighborCache): Sent Bytes/s to UDP.mean" 	0
scalar hierarchical.globalObserver.globalStatistics 	"BaseApp (neighborCache): Sent Messages/s to Overlay.mean" 	0
scalar hierarchical.globalObserver.globalStatistics 	"BaseApp (neighborCache): Sent Messages/s to UDP.mean" 	0
scalar hierarchical.globalObserver.globalStatistics 	"BaseApp (tier3): Received Bytes/s from Overlay.mean" 	0
scalar hierarchical.globalObserver.globalStatistics 	"BaseApp (tier3): Received Bytes/s from UDP.mean" 	0
scalar hierarchical.globalObserver.globalStatistics 	"BaseApp (tier3): Received Messages/s from Overlay.mean" 	0
scalar hierarchical.globalObserver.globalStatistics 	"BaseApp (tier3): Received Messages/s from UDP.mean" 	0
scalar hierarchical.globalObserver.globalStatistics 	"BaseApp (tier3): Sent Bytes/s to Overlay.mean" 	0
scalar hierarchical.globalObserver.globalStatistics 	"BaseApp (tier3): Sent Bytes/s to UDP.mean" 	0
scalar hierarchical.globalObserver.globalStatistics 	"BaseApp (tier3): Sent Messages/s to Overlay.mean" 	0
scalar hierarchical.globalObserver.globalStatistics 	"BaseApp (tier3): Sent Messages/s to UDP.mean" 	0
scalar hierarchical.globalObserver.globalStatistics 	"BaseOverlay: Dropped Bytes/s.mean" 	6.3607056542762
scalar hierarchical.globalObserver.globalStatistics 	"BaseOverlay: Dropped Messages/s.mean" 	0.07465616965113
scalar hierarchical.globalObserver.globalStatistics 	"BaseOverlay: Forwarded App Data Bytes/s.mean" 	0
scalar hierarchical.globalObserver.globalStatistics 	"BaseOverlay: Forwarded App Data Messages/s.mean" 	0
scalar hierarchical.globalObserver.globalStatistics 	"BaseOverlay: Forwarded App Lookup Bytes/s.mean" 	0
scalar hierarchical.globalObserver.globalStatistics 	"BaseOverlay: Forwarded App Lookup Messages/s.mean" 	0
scalar hierarchical.globalObserver.globalStatistics 	"BaseOverlay: Forwarded Maintenance Bytes/s.mean" 	0
scalar hierarchical.globalObserver.globalStatistics 	"BaseOverlay: Forwarded Maintenance Messages/s.mean" 	0
scalar hierarchical.globalObserver.globalStatistics 	"BaseOverlay: Forwarded Total Bytes/s.mean" 	0
scalar hierarchical.globalObserver.globalStatistics 	"BaseOverlay: Forwarded Total Messages/s.mean" 	0
scalar hierarchical.globalObserver.globalStatistics 	"BaseOverlay: Join Retries.mean" 	3.6
scalar hierarchical.globalObserver.globalStatistics 	"BaseOverlay: Measured Session Time.mean" 	381.289545099
scalar hierarchical.globalObserver.globalStatistics 	"BaseOverlay: Received App Data Bytes/s.mean" 	534.42441291976
scalar hierarchical.globalObserver.globalStatistics 	"BaseOverlay: Received App Data Messages/s.mean" 	8.2228438287173
scalar hierarchical.globalObserver.globalStatistics 	"BaseOverlay: Received App Lookup Bytes/s.mean" 	1604.9732663939
scalar hierarchical.globalObserver.globalStatistics 	"BaseOverlay: Received App Lookup Messages/s.mean" 	29.583040482615
scalar hierarchical.globalObserver.globalStatistics 	"BaseOverlay: Received Maintenance Bytes/s.mean" 	44.847738637282
scalar hierarchical.globalObserver.globalStatistics 	"BaseOverlay: Received Maintenance Messages/s.mean" 	0.97621829458096
scalar hierarchical.globalObserver.globalStatistics 	"BaseOverlay: Received Total Bytes/s.mean" 	2184.245417951
scalar hierarchical.globalObserver.globalStatistics 	"BaseOverlay: Received Total Messages/s.mean" 	38.782102605913
scalar hierarchical.globalObserver.globalStatistics 	"BaseOverlay: Sent App Data Bytes/s.mean" 	944.20999510139
scalar hierarchical.globalObserver.globalStatistics 	"BaseOverlay: Sent App Data Messages/s.mean" 	13.990566192622
scalar hierarchical.globalObserver.globalStatistics 	"BaseOverlay: Sent App Lookup Bytes/s.mean" 	2172.2641692387
scalar hierarchical.globalObserver.globalStatistics 	"BaseOverlay: Sent App Lookup Messages/s.mean" 	39.354466573238
scalar hierarchical.globalObserver.globalStatistics 	"BaseOverlay: Sent FailedNode Bytes/s.mean" 	0
scalar hierarchical.globalObserver.globalStatistics 	"BaseOverlay: Sent FailedNode Messages/s.mean" 	0
scalar hierarchical.globalObserver.globalStatistics 	"BaseOverlay: Sent FailedNodeResponse Bytes/s.mean" 	0
scalar hierarchical.globalObserver.globalStatistics 	"BaseOverlay: Sent FailedNodeResponse Messages/s.mean" 	0
scalar hierarchical.globalObserver.globalStatistics 	"BaseOverlay: Sent FindNode Bytes/s.mean" 	1299.6750372337
scalar hierarchical.globalObserver.globalStatistics 	"BaseOverlay: Sent FindNode Messages/s.mean" 	23.630455222431
scalar hierarchical.globalObserver.globalStatistics 	"BaseOverlay: Sent FindNodeResponse Bytes/s.mean" 	881.55356045219
scalar hierarchical.globalObserver.globalStatistics 	"BaseOverlay: Sent FindNodeResponse Messages/s.mean" 	15.90318615797
scalar hierarchical.globalObserver.globalStatistics 	"BaseOverlay: Sent Maintenance Bytes/s.mean" 	47.404534695049
scalar hierarchical.globalObserver.globalStatistics 	"BaseOverlay: Sent Maintenance Messages/s.mean" 	1.0231450297902
scalar hierarchical.globalObserver.globalStatistics 	"BaseOverlay: Sent Ping Bytes/s.mean" 	3.7996435296727
scalar hierarchical.globalObserver.globalStatistics 	"BaseOverlay: Sent Ping Messages/s.mean" 	0.11873886030227
scalar hierarchical.globalObserver.globalStatistics 	"BaseOverlay: Sent Ping Response Bytes/s.mean" 	3.7086341038123
scalar hierarchical.globalObserver.globalStatistics 	"BaseOverlay: Sent Ping Response Messages/s.mean" 	0.11589481574413
scalar hierarchical.globalObserver.globalStatistics 	"BaseOverlay: Sent Total Bytes/s.mean" 	3163.8786990351
scalar hierarchical.globalObserver.globalStatistics 	"BaseOverlay: Sent Total Messages/s.mean" 	54.36817779565
scalar hierarchical.globalObserver.globalStatistics 	"Chord: Sent FIX_FINGERS Bytes/s.mean" 	0.61146957999973
scalar hierarchical.globalObserver.globalStatistics 	"Chord: Sent FIX_FINGERS Messages/s.mean" 	0.0071101113953457
scalar hierarchical.globalObserver.globalStatistics 	"Chord: Sent JOIN Bytes/s.mean" 	7.1954327320898
scalar hierarchical.globalObserver.globalStatistics 	"Chord: Sent JOIN Messages/s.mean" 	0.08247729218601
scalar hierarchical.globalObserver.globalStatistics 	"Chord: Sent NEWSUCCESSORHINT Bytes/s.mean" 	0.26876221074407
scalar hierarchical.globalObserver.globalStatistics 	"Chord: Sent NEWSUCCESSORHINT Messages/s.mean" 	0.004977077976742
scalar hierarchical.globalObserver.globalStatistics 	"Chord: Sent NOTIFY Bytes/s.mean" 	7.9348843172058
scalar hierarchical.globalObserver.globalStatistics 	"Chord: Sent NOTIFY Messages/s.mean" 	0.17846379602318
scalar hierarchical.globalObserver.globalStatistics 	"Chord: Sent STABILIZE Bytes/s.mean" 	14.921279774272
scalar hierarchical.globalObserver.globalStatistics 	"Chord: Sent STABILIZE Messages/s.mean" 	0.33630826899985
scalar hierarchical.globalObserver.globalStatistics 	"DHT4Routing: Failed GET Requests/s.mean" 	107.87532110132
scalar hierarchical.globalObserver.globalStatistics 	"DHT4Routing: Failed PUT Requests/s.mean" 	0.020619323046502
scalar hierarchical.globalObserver.globalStatistics 	"DHT4Routing: GET Latency (s).mean" 	0.13464442769361
scalar hierarchical.globalObserver.globalStatistics 	"DHT4Routing: GET Success Ratio.mean" 	0.2657976110913
scalar hierarchical.globalObserver.globalStatistics 	"DHT4Routing: PUT Latency (s).mean" 	0.0347437638
scalar hierarchical.globalObserver.globalStatistics 	"DHT4Routing: Sent GET Messages/s.mean" 	141.71020819836
scalar hierarchical.globalObserver.globalStatistics 	"DHT4Routing: Sent PUT Messages/s.mean" 	0.035550556976728
scalar hierarchical.globalObserver.globalStatistics 	"DHT4Routing: Sent Total Messages/s.mean" 	141.74575875533
scalar hierarchical.globalObserver.globalStatistics 	"DHT4Routing: Successful GET Requests/s.mean" 	0.10451863751158
scalar hierarchical.globalObserver.globalStatistics 	"DHT4Routing: Successful PUT Requests/s.mean" 	0.014220222790691
scalar hierarchical.globalObserver.globalStatistics 	"DHT: Sent Maintenance Bytes/s.mean" 	81.917726419196
scalar hierarchical.globalObserver.globalStatistics 	"DHT: Sent Maintenance Messages/s.mean" 	0.75153877448804
scalar hierarchical.globalObserver.globalStatistics 	"DHT: Sent Normal Bytes/s.mean" 	1229.5380543855
scalar hierarchical.globalObserver.globalStatistics 	"DHT: Sent Normal Messages/s.mean" 	20.697534271851
scalar hierarchical.globalObserver.globalStatistics 	"Vector: GlobalDhtTestMap: Number of stored DHT entries.mean" 	17.48275862069
scalar hierarchical.globalObserver.globalStatistics 	"Vector: GlobalNodeList: Number of nodes.mean" 	5
