version 2
run TwoClusters-0-20190326-20:37:38-9933
attr configname TwoClusters
attr datetime 20190326-20:37:38
attr experiment TwoClusters
attr inifile DHT-based_static_scenarios.ini
attr iterationvars ""
attr iterationvars2 $repetition=0
attr measurement ""
attr network p2psipmanet.simulations.hierarchical
attr processid 9933
attr repetition 0
attr replication #0
attr resultdir results
attr runnumber 0
attr seedset 277735

scalar hierarchical.gw[0].networkLayer.arp 	failedARPResolution:count 	0
attr title  "ARP failed resolutions, count"
scalar hierarchical.gw[0].networkLayer.arp 	completedARPResolution:count 	87
attr title  "ARP completed resolutions, count"
scalar hierarchical.gw[0].networkLayer.arp 	initiatedARPResolution:count 	21
attr title  "ARP initiated resolutions, count"
scalar hierarchical.gw[0].networkLayer.arp 	sentReply:count 	19
attr title  "ARP replies sent, count"
scalar hierarchical.gw[0].networkLayer.arp 	sentReq:count 	21
attr title  "ARP request sent, count"
scalar hierarchical.gw[0].lo0.lo 	droppedPkBitError:count 	0
attr interpolationmode  none
attr source  dropPkBitError
attr title  "packets dropped/bit error, count"
scalar hierarchical.gw[0].lo0.lo 	droppedPkBitError:sum(packetBytes) 	0
attr interpolationmode  none
attr source  dropPkBitError
attr title  "packets dropped/bit error, sum(packetBytes)"
scalar hierarchical.gw[0].lo0.lo 	rcvdPkFromHL:count 	64
attr interpolationmode  none
attr source  packetReceivedFromUpper
attr title  "packets received from higher layer, count"
scalar hierarchical.gw[0].lo0.lo 	rcvdPkFromHL:sum(packetBytes) 	6054
attr interpolationmode  none
attr source  packetReceivedFromUpper
attr title  "packets received from higher layer, sum(packetBytes)"
scalar hierarchical.gw[0].lo0.lo 	passedUpPk:count 	64
attr interpolationmode  none
attr source  packetSentToUpper
attr title  "packets passed to higher layer, count"
scalar hierarchical.gw[0].lo0.lo 	passedUpPk:sum(packetBytes) 	6054
attr interpolationmode  none
attr source  packetSentToUpper
attr title  "packets passed to higher layer, sum(packetBytes)"
scalar hierarchical.gw[0].wlan[0].mgmt 	dataQueueLen:max 	2
attr interpolationmode  sample-hold
attr title  "data queue length, max"
scalar hierarchical.gw[0].wlan[0].mgmt 	dataQueueLen:timeavg 	4.2731422222222e-06
attr interpolationmode  sample-hold
attr title  "data queue length, timeavg"
scalar hierarchical.gw[0].wlan[0].mgmt 	dropPkByQueue:count 	0
attr interpolationmode  none
attr source  dropPkByQueue
attr title  "packets dropped by queue, count"
scalar hierarchical.gw[0].wlan[0].mgmt 	dropPkByQueue:sum(packetBytes) 	0
attr interpolationmode  none
attr source  dropPkByQueue
attr title  "packets dropped by queue, sum(packetBytes)"
scalar hierarchical.gw[0].wlan[0].mac 	"number of received packets" 	23004
scalar hierarchical.gw[0].wlan[0].mac 	"number of collisions" 	4686
scalar hierarchical.gw[0].wlan[0].mac 	"number of internal collisions" 	0
scalar hierarchical.gw[0].wlan[0].mac 	"number of retry for AC 0" 	304
scalar hierarchical.gw[0].wlan[0].mac 	"sent and received bits" 	36135920
scalar hierarchical.gw[0].wlan[0].mac 	"sent packet within AC 0" 	22914
scalar hierarchical.gw[0].wlan[0].mac 	"sent in TXOP " 	0
scalar hierarchical.gw[0].wlan[0].mac 	"sentWithoutRetry AC 0" 	22701
scalar hierarchical.gw[0].wlan[0].mac 	"numGivenUp AC 0" 	0
scalar hierarchical.gw[0].wlan[0].mac 	"numDropped AC 0" 	0
scalar hierarchical.gw[0].wlan[0].mac 	rcvdPkFromHL:count 	24270
attr interpolationmode  none
attr source  packetReceivedFromUpper
attr title  "packets received from higher layer, count"
scalar hierarchical.gw[0].wlan[0].mac 	rcvdPkFromHL:sum(packetBytes) 	4517180
attr interpolationmode  none
attr source  packetReceivedFromUpper
attr title  "packets received from higher layer, sum(packetBytes)"
scalar hierarchical.gw[0].wlan[0].mac 	passedUpPk:count 	33452
attr interpolationmode  none
attr source  packetSentToUpper
attr title  "packets passed to higher layer, count"
scalar hierarchical.gw[0].wlan[0].mac 	passedUpPk:sum(packetBytes) 	5542004
attr interpolationmode  none
attr source  packetSentToUpper
attr title  "packets passed to higher layer, sum(packetBytes)"
scalar hierarchical.gw[0].wlan[0].mac 	rcvdPkFromLL:count 	170746
attr interpolationmode  none
attr source  packetReceivedFromLower
attr title  "packets received from lower layer, count"
scalar hierarchical.gw[0].wlan[0].mac 	rcvdPkFromLL:sum(packetBytes) 	17825336
attr interpolationmode  none
attr source  packetReceivedFromLower
attr title  "packets received from lower layer, sum(packetBytes)"
scalar hierarchical.gw[0].wlan[0].mac 	sentDownPk:count 	47577
attr interpolationmode  none
attr source  packetSentToLower
attr title  "packets sent to lower layer, count"
scalar hierarchical.gw[0].wlan[0].mac 	sentDownPk:sum(packetBytes) 	4896806
attr interpolationmode  none
attr source  packetSentToLower
attr title  "packets sent to lower layer, sum(packetBytes)"
scalar hierarchical.gw[0].wlan[0].radio 	lossRate:min 	0
attr interpolationmode  backward-sample-hold
attr title  "packet loss rate, min"
scalar hierarchical.gw[0].wlan[0].radio 	lossRate:max 	0.36
attr interpolationmode  backward-sample-hold
attr title  "packet loss rate, max"
scalar hierarchical.gw[0].wlan[0].radio 	lossRate:timeavg 	0.023667313131903
attr interpolationmode  backward-sample-hold
attr title  "packet loss rate, timeavg"
statistic hierarchical.gw[0].wlan[0].radio 	channelNo:histogram
field count 1
field mean 0
field stddev -nan
field sum 0
field sqrsum 0
field min 0
field max 0
attr interpolationmode  sample-hold
attr title  "channel no, histogram"
bin	-INF	0
bin	-0.5	0
bin	-0.46666666666667	0
bin	-0.43333333333333	0
bin	-0.4	0
bin	-0.36666666666667	0
bin	-0.33333333333333	0
bin	-0.3	0
bin	-0.26666666666667	0
bin	-0.23333333333333	0
bin	-0.2	0
bin	-0.16666666666667	0
bin	-0.13333333333333	0
bin	-0.1	0
bin	-0.066666666666667	0
bin	-0.033333333333333	0
bin	0	1
bin	0.033333333333333	0
bin	0.066666666666667	0
bin	0.1	0
bin	0.13333333333333	0
bin	0.16666666666667	0
bin	0.2	0
bin	0.23333333333333	0
bin	0.26666666666667	0
bin	0.3	0
bin	0.33333333333333	0
bin	0.36666666666667	0
bin	0.4	0
bin	0.43333333333333	0
bin	0.46666666666667	0
bin	0.5	0
scalar hierarchical.gw[0].wlan[0].radio 	bitrate:min 	11000000
attr interpolationmode  sample-hold
attr title  "tx bitrate, min"
attr unit  bps
scalar hierarchical.gw[0].wlan[0].radio 	bitrate:max 	11000000
attr interpolationmode  sample-hold
attr title  "tx bitrate, max"
attr unit  bps
scalar hierarchical.gw[0].wlan[0].radio 	bitrate:timeavg 	11000000
attr interpolationmode  sample-hold
attr title  "tx bitrate, timeavg"
attr unit  bps
scalar hierarchical.gw[0].wlan[0].radio 	radioState:count 	434990
attr interpolationmode  sample-hold
attr title  "radio state (enum), count"
scalar hierarchical.gw[0].wlan[1].mgmt 	dataQueueLen:max 	7
attr interpolationmode  sample-hold
attr title  "data queue length, max"
scalar hierarchical.gw[0].wlan[1].mgmt 	dataQueueLen:timeavg 	0.0013052833844444
attr interpolationmode  sample-hold
attr title  "data queue length, timeavg"
scalar hierarchical.gw[0].wlan[1].mgmt 	dropPkByQueue:count 	0
attr interpolationmode  none
attr source  dropPkByQueue
attr title  "packets dropped by queue, count"
scalar hierarchical.gw[0].wlan[1].mgmt 	dropPkByQueue:sum(packetBytes) 	0
attr interpolationmode  none
attr source  dropPkByQueue
attr title  "packets dropped by queue, sum(packetBytes)"
scalar hierarchical.gw[0].wlan[1].mac 	"number of received packets" 	23826
scalar hierarchical.gw[0].wlan[1].mac 	"number of collisions" 	408
scalar hierarchical.gw[0].wlan[1].mac 	"number of internal collisions" 	0
scalar hierarchical.gw[0].wlan[1].mac 	"number of retry for AC 0" 	11014
scalar hierarchical.gw[0].wlan[1].mac 	"sent and received bits" 	39993459
scalar hierarchical.gw[0].wlan[1].mac 	"sent packet within AC 0" 	23887
scalar hierarchical.gw[0].wlan[1].mac 	"sent in TXOP " 	0
scalar hierarchical.gw[0].wlan[1].mac 	"sentWithoutRetry AC 0" 	19694
scalar hierarchical.gw[0].wlan[1].mac 	"numGivenUp AC 0" 	24
scalar hierarchical.gw[0].wlan[1].mac 	"numDropped AC 0" 	0
scalar hierarchical.gw[0].wlan[1].mac 	rcvdPkFromHL:count 	24562
attr interpolationmode  none
attr source  packetReceivedFromUpper
attr title  "packets received from higher layer, count"
scalar hierarchical.gw[0].wlan[1].mac 	rcvdPkFromHL:sum(packetBytes) 	5004006
attr interpolationmode  none
attr source  packetReceivedFromUpper
attr title  "packets received from higher layer, sum(packetBytes)"
scalar hierarchical.gw[0].wlan[1].mac 	passedUpPk:count 	25087
attr interpolationmode  none
attr source  packetSentToUpper
attr title  "packets passed to higher layer, count"
scalar hierarchical.gw[0].wlan[1].mac 	passedUpPk:sum(packetBytes) 	5060160
attr interpolationmode  none
attr source  packetSentToUpper
attr title  "packets passed to higher layer, sum(packetBytes)"
scalar hierarchical.gw[0].wlan[1].mac 	rcvdPkFromLL:count 	103756
attr interpolationmode  none
attr source  packetReceivedFromLower
attr title  "packets received from lower layer, count"
scalar hierarchical.gw[0].wlan[1].mac 	rcvdPkFromLL:sum(packetBytes) 	11898920
attr interpolationmode  none
attr source  packetReceivedFromLower
attr title  "packets received from lower layer, sum(packetBytes)"
scalar hierarchical.gw[0].wlan[1].mac 	sentDownPk:count 	59402
attr interpolationmode  none
attr source  packetSentToLower
attr title  "packets sent to lower layer, count"
scalar hierarchical.gw[0].wlan[1].mac 	sentDownPk:sum(packetBytes) 	7584216
attr interpolationmode  none
attr source  packetSentToLower
attr title  "packets sent to lower layer, sum(packetBytes)"
scalar hierarchical.gw[0].wlan[1].radio 	lossRate:min 	0
attr interpolationmode  backward-sample-hold
attr title  "packet loss rate, min"
scalar hierarchical.gw[0].wlan[1].radio 	lossRate:max 	0.06
attr interpolationmode  backward-sample-hold
attr title  "packet loss rate, max"
scalar hierarchical.gw[0].wlan[1].radio 	lossRate:timeavg 	0.0038693131867309
attr interpolationmode  backward-sample-hold
attr title  "packet loss rate, timeavg"
statistic hierarchical.gw[0].wlan[1].radio 	channelNo:histogram
field count 1
field mean 5
field stddev -nan
field sum 5
field sqrsum 25
field min 5
field max 5
attr interpolationmode  sample-hold
attr title  "channel no, histogram"
bin	-INF	0
bin	4	0
bin	5	1
bin	6	0
scalar hierarchical.gw[0].wlan[1].radio 	bitrate:min 	11000000
attr interpolationmode  sample-hold
attr title  "tx bitrate, min"
attr unit  bps
scalar hierarchical.gw[0].wlan[1].radio 	bitrate:max 	11000000
attr interpolationmode  sample-hold
attr title  "tx bitrate, max"
attr unit  bps
scalar hierarchical.gw[0].wlan[1].radio 	bitrate:timeavg 	11000000
attr interpolationmode  sample-hold
attr title  "tx bitrate, timeavg"
attr unit  bps
scalar hierarchical.gw[0].wlan[1].radio 	radioState:count 	326451
attr interpolationmode  sample-hold
attr title  "radio state (enum), count"
scalar hierarchical.gw[0].manetrouting 	OLSR_HNA_Messages_(Forwarded) 	0
scalar hierarchical.gw[0].manetrouting 	OLSR_TC_Messages_(Forwarded) 	1226
scalar hierarchical.gw[0].manetrouting 	OLSR_Total_HELLO 	511
scalar hierarchical.gw[0].manetrouting 	OLSR_Total_HNA_(originated) 	189
scalar hierarchical.gw[0].manetrouting 	OLSR_Total_TC 	188
scalar hierarchical.gw[0].manetrouting 	OLSR_Total_Messages_Sent 	2114
scalar hierarchical.gw[0].backbonemanetrouting 	OLSR_HNA_Messages_(Forwarded) 	0
scalar hierarchical.gw[0].backbonemanetrouting 	OLSR_TC_Messages_(Forwarded) 	511
scalar hierarchical.gw[0].backbonemanetrouting 	OLSR_Total_HELLO 	513
scalar hierarchical.gw[0].backbonemanetrouting 	OLSR_Total_HNA_(originated) 	0
scalar hierarchical.gw[0].backbonemanetrouting 	OLSR_Total_TC 	0
scalar hierarchical.gw[0].backbonemanetrouting 	OLSR_Total_Messages_Sent 	1024
scalar hierarchical.gw[0].udp 	droppedPkBadChecksum:count 	0
attr interpolationmode  none
attr title  "packets dropped (checksum error), count"
scalar hierarchical.gw[0].udp 	droppedPkWrongPort:count 	0
attr interpolationmode  none
attr title  "packets dropped (wrong port), count"
scalar hierarchical.gw[0].udp 	passedUpPk:count 	945
attr interpolationmode  none
attr title  "packets passed up, count"
scalar hierarchical.gw[0].udp 	rcvdPk:count 	945
attr interpolationmode  none
attr source  rcvdPk
attr title  "packets received, count"
scalar hierarchical.gw[0].udp 	rcvdPk:sum(packetBytes) 	61282
attr interpolationmode  none
attr source  rcvdPk
attr title  "packets received, sum(packetBytes)"
scalar hierarchical.gw[0].udp 	sentPk:count 	1014
attr interpolationmode  none
attr source  sentPk
attr title  "packets sent, count"
scalar hierarchical.gw[0].udp 	sentPk:sum(packetBytes) 	65552
attr interpolationmode  none
attr source  sentPk
attr title  "packets sent, sum(packetBytes)"
scalar hierarchical.gw[0].pingApp[0] 	numOutOfOrderArrivals:last 	-nan
attr interpolationmode  none
attr title  "ping out-of-order arrivals, last"
scalar hierarchical.gw[0].pingApp[0] 	pingRxSeq:count 	0
attr interpolationmode  none
attr title  "ping rx seq, count"
scalar hierarchical.gw[0].pingApp[0] 	pingTxSeq:count 	0
attr interpolationmode  none
attr title  "ping tx seq, count"
scalar hierarchical.gw[0].pingApp[0] 	numLost:last 	-nan
attr interpolationmode  none
attr title  "pings lost, last"
statistic hierarchical.gw[0].pingApp[0] 	rtt:histogram
field count 0
field mean -nan
field stddev -nan
field sum 0
field sqrsum 0
field min -nan
field max -nan
attr interpolationmode  none
attr title  "ping round-trip time, histogram"
attr unit  s
bin	-INF	0
bin	-0.5	0
bin	-0.46666666666667	0
bin	-0.43333333333333	0
bin	-0.4	0
bin	-0.36666666666667	0
bin	-0.33333333333333	0
bin	-0.3	0
bin	-0.26666666666667	0
bin	-0.23333333333333	0
bin	-0.2	0
bin	-0.16666666666667	0
bin	-0.13333333333333	0
bin	-0.1	0
bin	-0.066666666666667	0
bin	-0.033333333333333	0
bin	0	0
bin	0.033333333333333	0
bin	0.066666666666667	0
bin	0.1	0
bin	0.13333333333333	0
bin	0.16666666666667	0
bin	0.2	0
bin	0.23333333333333	0
bin	0.26666666666667	0
bin	0.3	0
bin	0.33333333333333	0
bin	0.36666666666667	0
bin	0.4	0
bin	0.43333333333333	0
bin	0.46666666666667	0
bin	0.5	0
scalar hierarchical.gw[0].pingTestApp[0] 	numOutOfOrderArrivals:last 	-nan
attr interpolationmode  none
attr title  "ping out-of-order arrivals, last"
scalar hierarchical.gw[0].pingTestApp[0] 	pingRxSeq:count 	0
attr interpolationmode  none
attr title  "ping rx seq, count"
scalar hierarchical.gw[0].pingTestApp[0] 	pingTxSeq:count 	0
attr interpolationmode  none
attr title  "ping tx seq, count"
scalar hierarchical.gw[0].pingTestApp[0] 	numLost:last 	-nan
attr interpolationmode  none
attr title  "pings lost, last"
statistic hierarchical.gw[0].pingTestApp[0] 	rtt:histogram
field count 0
field mean -nan
field stddev -nan
field sum 0
field sqrsum 0
field min -nan
field max -nan
attr interpolationmode  none
attr title  "ping round-trip time, histogram"
attr unit  s
bin	-INF	0
bin	-0.5	0
bin	-0.46666666666667	0
bin	-0.43333333333333	0
bin	-0.4	0
bin	-0.36666666666667	0
bin	-0.33333333333333	0
bin	-0.3	0
bin	-0.26666666666667	0
bin	-0.23333333333333	0
bin	-0.2	0
bin	-0.16666666666667	0
bin	-0.13333333333333	0
bin	-0.1	0
bin	-0.066666666666667	0
bin	-0.033333333333333	0
bin	0	0
bin	0.033333333333333	0
bin	0.066666666666667	0
bin	0.1	0
bin	0.13333333333333	0
bin	0.16666666666667	0
bin	0.2	0
bin	0.23333333333333	0
bin	0.26666666666667	0
bin	0.3	0
bin	0.33333333333333	0
bin	0.36666666666667	0
bin	0.4	0
bin	0.43333333333333	0
bin	0.46666666666667	0
bin	0.5	0
scalar hierarchical.gw[1].networkLayer.arp 	failedARPResolution:count 	0
attr title  "ARP failed resolutions, count"
scalar hierarchical.gw[1].networkLayer.arp 	completedARPResolution:count 	17
attr title  "ARP completed resolutions, count"
scalar hierarchical.gw[1].networkLayer.arp 	initiatedARPResolution:count 	13
attr title  "ARP initiated resolutions, count"
scalar hierarchical.gw[1].networkLayer.arp 	sentReply:count 	3
attr title  "ARP replies sent, count"
scalar hierarchical.gw[1].networkLayer.arp 	sentReq:count 	13
attr title  "ARP request sent, count"
scalar hierarchical.gw[1].lo0.lo 	droppedPkBitError:count 	0
attr interpolationmode  none
attr source  dropPkBitError
attr title  "packets dropped/bit error, count"
scalar hierarchical.gw[1].lo0.lo 	droppedPkBitError:sum(packetBytes) 	0
attr interpolationmode  none
attr source  dropPkBitError
attr title  "packets dropped/bit error, sum(packetBytes)"
scalar hierarchical.gw[1].lo0.lo 	rcvdPkFromHL:count 	31
attr interpolationmode  none
attr source  packetReceivedFromUpper
attr title  "packets received from higher layer, count"
scalar hierarchical.gw[1].lo0.lo 	rcvdPkFromHL:sum(packetBytes) 	2786
attr interpolationmode  none
attr source  packetReceivedFromUpper
attr title  "packets received from higher layer, sum(packetBytes)"
scalar hierarchical.gw[1].lo0.lo 	passedUpPk:count 	31
attr interpolationmode  none
attr source  packetSentToUpper
attr title  "packets passed to higher layer, count"
scalar hierarchical.gw[1].lo0.lo 	passedUpPk:sum(packetBytes) 	2786
attr interpolationmode  none
attr source  packetSentToUpper
attr title  "packets passed to higher layer, sum(packetBytes)"
scalar hierarchical.gw[1].wlan[0].mgmt 	dataQueueLen:max 	0
attr interpolationmode  sample-hold
attr title  "data queue length, max"
scalar hierarchical.gw[1].wlan[0].mgmt 	dataQueueLen:timeavg 	0
attr interpolationmode  sample-hold
attr title  "data queue length, timeavg"
scalar hierarchical.gw[1].wlan[0].mgmt 	dropPkByQueue:count 	0
attr interpolationmode  none
attr source  dropPkByQueue
attr title  "packets dropped by queue, count"
scalar hierarchical.gw[1].wlan[0].mgmt 	dropPkByQueue:sum(packetBytes) 	0
attr interpolationmode  none
attr source  dropPkByQueue
attr title  "packets dropped by queue, sum(packetBytes)"
scalar hierarchical.gw[1].wlan[0].mac 	"number of received packets" 	0
scalar hierarchical.gw[1].wlan[0].mac 	"number of collisions" 	0
scalar hierarchical.gw[1].wlan[0].mac 	"number of internal collisions" 	0
scalar hierarchical.gw[1].wlan[0].mac 	"number of retry for AC 0" 	0
scalar hierarchical.gw[1].wlan[0].mac 	"sent and received bits" 	574544
scalar hierarchical.gw[1].wlan[0].mac 	"sent packet within AC 0" 	0
scalar hierarchical.gw[1].wlan[0].mac 	"sent in TXOP " 	0
scalar hierarchical.gw[1].wlan[0].mac 	"sentWithoutRetry AC 0" 	0
scalar hierarchical.gw[1].wlan[0].mac 	"numGivenUp AC 0" 	0
scalar hierarchical.gw[1].wlan[0].mac 	"numDropped AC 0" 	0
scalar hierarchical.gw[1].wlan[0].mac 	rcvdPkFromHL:count 	767
attr interpolationmode  none
attr source  packetReceivedFromUpper
attr title  "packets received from higher layer, count"
scalar hierarchical.gw[1].wlan[0].mac 	rcvdPkFromHL:sum(packetBytes) 	71818
attr interpolationmode  none
attr source  packetReceivedFromUpper
attr title  "packets received from higher layer, sum(packetBytes)"
scalar hierarchical.gw[1].wlan[0].mac 	passedUpPk:count 	0
attr interpolationmode  none
attr source  packetSentToUpper
attr title  "packets passed to higher layer, count"
scalar hierarchical.gw[1].wlan[0].mac 	passedUpPk:sum(packetBytes) 	0
attr interpolationmode  none
attr source  packetSentToUpper
attr title  "packets passed to higher layer, sum(packetBytes)"
scalar hierarchical.gw[1].wlan[0].mac 	rcvdPkFromLL:count 	0
attr interpolationmode  none
attr source  packetReceivedFromLower
attr title  "packets received from lower layer, count"
scalar hierarchical.gw[1].wlan[0].mac 	rcvdPkFromLL:sum(packetBytes) 	0
attr interpolationmode  none
attr source  packetReceivedFromLower
attr title  "packets received from lower layer, sum(packetBytes)"
scalar hierarchical.gw[1].wlan[0].mac 	sentDownPk:count 	767
attr interpolationmode  none
attr source  packetSentToLower
attr title  "packets sent to lower layer, count"
scalar hierarchical.gw[1].wlan[0].mac 	sentDownPk:sum(packetBytes) 	71818
attr interpolationmode  none
attr source  packetSentToLower
attr title  "packets sent to lower layer, sum(packetBytes)"
scalar hierarchical.gw[1].wlan[0].radio 	lossRate:min 	-nan
attr interpolationmode  backward-sample-hold
attr title  "packet loss rate, min"
scalar hierarchical.gw[1].wlan[0].radio 	lossRate:max 	-nan
attr interpolationmode  backward-sample-hold
attr title  "packet loss rate, max"
scalar hierarchical.gw[1].wlan[0].radio 	lossRate:timeavg 	-nan
attr interpolationmode  backward-sample-hold
attr title  "packet loss rate, timeavg"
statistic hierarchical.gw[1].wlan[0].radio 	channelNo:histogram
field count 1
field mean 1
field stddev -nan
field sum 1
field sqrsum 1
field min 1
field max 1
attr interpolationmode  sample-hold
attr title  "channel no, histogram"
bin	-INF	0
bin	0	0
bin	1	1
bin	2	0
scalar hierarchical.gw[1].wlan[0].radio 	bitrate:min 	11000000
attr interpolationmode  sample-hold
attr title  "tx bitrate, min"
attr unit  bps
scalar hierarchical.gw[1].wlan[0].radio 	bitrate:max 	11000000
attr interpolationmode  sample-hold
attr title  "tx bitrate, max"
attr unit  bps
scalar hierarchical.gw[1].wlan[0].radio 	bitrate:timeavg 	11000000
attr interpolationmode  sample-hold
attr title  "tx bitrate, timeavg"
attr unit  bps
scalar hierarchical.gw[1].wlan[0].radio 	radioState:count 	1535
attr interpolationmode  sample-hold
attr title  "radio state (enum), count"
scalar hierarchical.gw[1].wlan[1].mgmt 	dataQueueLen:max 	6
attr interpolationmode  sample-hold
attr title  "data queue length, max"
scalar hierarchical.gw[1].wlan[1].mgmt 	dataQueueLen:timeavg 	0.0015233778366667
attr interpolationmode  sample-hold
attr title  "data queue length, timeavg"
scalar hierarchical.gw[1].wlan[1].mgmt 	dropPkByQueue:count 	0
attr interpolationmode  none
attr source  dropPkByQueue
attr title  "packets dropped by queue, count"
scalar hierarchical.gw[1].wlan[1].mgmt 	dropPkByQueue:sum(packetBytes) 	0
attr interpolationmode  none
attr source  dropPkByQueue
attr title  "packets dropped by queue, sum(packetBytes)"
scalar hierarchical.gw[1].wlan[1].mac 	"number of received packets" 	48427
scalar hierarchical.gw[1].wlan[1].mac 	"number of collisions" 	12235
scalar hierarchical.gw[1].wlan[1].mac 	"number of internal collisions" 	0
scalar hierarchical.gw[1].wlan[1].mac 	"number of retry for AC 0" 	5793
scalar hierarchical.gw[1].wlan[1].mac 	"sent and received bits" 	80547653
scalar hierarchical.gw[1].wlan[1].mac 	"sent packet within AC 0" 	48313
scalar hierarchical.gw[1].wlan[1].mac 	"sent in TXOP " 	0
scalar hierarchical.gw[1].wlan[1].mac 	"sentWithoutRetry AC 0" 	45924
scalar hierarchical.gw[1].wlan[1].mac 	"numGivenUp AC 0" 	10
scalar hierarchical.gw[1].wlan[1].mac 	"numDropped AC 0" 	0
scalar hierarchical.gw[1].wlan[1].mac 	rcvdPkFromHL:count 	49600
attr interpolationmode  none
attr source  packetReceivedFromUpper
attr title  "packets received from higher layer, count"
scalar hierarchical.gw[1].wlan[1].mac 	rcvdPkFromHL:sum(packetBytes) 	10070783
attr interpolationmode  none
attr source  packetReceivedFromUpper
attr title  "packets received from higher layer, sum(packetBytes)"
scalar hierarchical.gw[1].wlan[1].mac 	passedUpPk:count 	50210
attr interpolationmode  none
attr source  packetSentToUpper
attr title  "packets passed to higher layer, count"
scalar hierarchical.gw[1].wlan[1].mac 	passedUpPk:sum(packetBytes) 	10131081
attr interpolationmode  none
attr source  packetSentToUpper
attr title  "packets passed to higher layer, sum(packetBytes)"
scalar hierarchical.gw[1].wlan[1].mac 	rcvdPkFromLL:count 	158950
attr interpolationmode  none
attr source  packetReceivedFromLower
attr title  "packets received from lower layer, count"
scalar hierarchical.gw[1].wlan[1].mac 	rcvdPkFromLL:sum(packetBytes) 	18484727
attr interpolationmode  none
attr source  packetReceivedFromLower
attr title  "packets received from lower layer, sum(packetBytes)"
scalar hierarchical.gw[1].wlan[1].mac 	sentDownPk:count 	103820
attr interpolationmode  none
attr source  packetSentToLower
attr title  "packets sent to lower layer, count"
scalar hierarchical.gw[1].wlan[1].mac 	sentDownPk:sum(packetBytes) 	11904744
attr interpolationmode  none
attr source  packetSentToLower
attr title  "packets sent to lower layer, sum(packetBytes)"
scalar hierarchical.gw[1].wlan[1].radio 	lossRate:min 	0
attr interpolationmode  backward-sample-hold
attr title  "packet loss rate, min"
scalar hierarchical.gw[1].wlan[1].radio 	lossRate:max 	0.44
attr interpolationmode  backward-sample-hold
attr title  "packet loss rate, max"
scalar hierarchical.gw[1].wlan[1].radio 	lossRate:timeavg 	0.071997539635107
attr interpolationmode  backward-sample-hold
attr title  "packet loss rate, timeavg"
statistic hierarchical.gw[1].wlan[1].radio 	channelNo:histogram
field count 1
field mean 5
field stddev -nan
field sum 5
field sqrsum 25
field min 5
field max 5
attr interpolationmode  sample-hold
attr title  "channel no, histogram"
bin	-INF	0
bin	4	0
bin	5	1
bin	6	0
scalar hierarchical.gw[1].wlan[1].radio 	bitrate:min 	11000000
attr interpolationmode  sample-hold
attr title  "tx bitrate, min"
attr unit  bps
scalar hierarchical.gw[1].wlan[1].radio 	bitrate:max 	11000000
attr interpolationmode  sample-hold
attr title  "tx bitrate, max"
attr unit  bps
scalar hierarchical.gw[1].wlan[1].radio 	bitrate:timeavg 	11000000
attr interpolationmode  sample-hold
attr title  "tx bitrate, timeavg"
attr unit  bps
scalar hierarchical.gw[1].wlan[1].radio 	radioState:count 	524228
attr interpolationmode  sample-hold
attr title  "radio state (enum), count"
scalar hierarchical.gw[1].manetrouting 	OLSR_HNA_Messages_(Forwarded) 	0
scalar hierarchical.gw[1].manetrouting 	OLSR_TC_Messages_(Forwarded) 	0
scalar hierarchical.gw[1].manetrouting 	OLSR_Total_HELLO 	515
scalar hierarchical.gw[1].manetrouting 	OLSR_Total_HNA_(originated) 	189
scalar hierarchical.gw[1].manetrouting 	OLSR_Total_TC 	0
scalar hierarchical.gw[1].manetrouting 	OLSR_Total_Messages_Sent 	704
scalar hierarchical.gw[1].backbonemanetrouting 	OLSR_HNA_Messages_(Forwarded) 	0
scalar hierarchical.gw[1].backbonemanetrouting 	OLSR_TC_Messages_(Forwarded) 	327
scalar hierarchical.gw[1].backbonemanetrouting 	OLSR_Total_HELLO 	512
scalar hierarchical.gw[1].backbonemanetrouting 	OLSR_Total_HNA_(originated) 	0
scalar hierarchical.gw[1].backbonemanetrouting 	OLSR_Total_TC 	189
scalar hierarchical.gw[1].backbonemanetrouting 	OLSR_Total_Messages_Sent 	1028
scalar hierarchical.gw[1].udp 	droppedPkBadChecksum:count 	0
attr interpolationmode  none
attr title  "packets dropped (checksum error), count"
scalar hierarchical.gw[1].udp 	droppedPkWrongPort:count 	0
attr interpolationmode  none
attr title  "packets dropped (wrong port), count"
scalar hierarchical.gw[1].udp 	passedUpPk:count 	876
attr interpolationmode  none
attr title  "packets passed up, count"
scalar hierarchical.gw[1].udp 	rcvdPk:count 	876
attr interpolationmode  none
attr source  rcvdPk
attr title  "packets received, count"
scalar hierarchical.gw[1].udp 	rcvdPk:sum(packetBytes) 	55904
attr interpolationmode  none
attr source  rcvdPk
attr title  "packets received, sum(packetBytes)"
scalar hierarchical.gw[1].udp 	sentPk:count 	903
attr interpolationmode  none
attr source  sentPk
attr title  "packets sent, count"
scalar hierarchical.gw[1].udp 	sentPk:sum(packetBytes) 	57187
attr interpolationmode  none
attr source  sentPk
attr title  "packets sent, sum(packetBytes)"
scalar hierarchical.gw[1].pingApp[0] 	numOutOfOrderArrivals:last 	-nan
attr interpolationmode  none
attr title  "ping out-of-order arrivals, last"
scalar hierarchical.gw[1].pingApp[0] 	pingRxSeq:count 	0
attr interpolationmode  none
attr title  "ping rx seq, count"
scalar hierarchical.gw[1].pingApp[0] 	pingTxSeq:count 	0
attr interpolationmode  none
attr title  "ping tx seq, count"
scalar hierarchical.gw[1].pingApp[0] 	numLost:last 	-nan
attr interpolationmode  none
attr title  "pings lost, last"
statistic hierarchical.gw[1].pingApp[0] 	rtt:histogram
field count 0
field mean -nan
field stddev -nan
field sum 0
field sqrsum 0
field min -nan
field max -nan
attr interpolationmode  none
attr title  "ping round-trip time, histogram"
attr unit  s
bin	-INF	0
bin	-0.5	0
bin	-0.46666666666667	0
bin	-0.43333333333333	0
bin	-0.4	0
bin	-0.36666666666667	0
bin	-0.33333333333333	0
bin	-0.3	0
bin	-0.26666666666667	0
bin	-0.23333333333333	0
bin	-0.2	0
bin	-0.16666666666667	0
bin	-0.13333333333333	0
bin	-0.1	0
bin	-0.066666666666667	0
bin	-0.033333333333333	0
bin	0	0
bin	0.033333333333333	0
bin	0.066666666666667	0
bin	0.1	0
bin	0.13333333333333	0
bin	0.16666666666667	0
bin	0.2	0
bin	0.23333333333333	0
bin	0.26666666666667	0
bin	0.3	0
bin	0.33333333333333	0
bin	0.36666666666667	0
bin	0.4	0
bin	0.43333333333333	0
bin	0.46666666666667	0
bin	0.5	0
scalar hierarchical.gw[1].pingTestApp[0] 	numOutOfOrderArrivals:last 	-nan
attr interpolationmode  none
attr title  "ping out-of-order arrivals, last"
scalar hierarchical.gw[1].pingTestApp[0] 	pingRxSeq:count 	0
attr interpolationmode  none
attr title  "ping rx seq, count"
scalar hierarchical.gw[1].pingTestApp[0] 	pingTxSeq:count 	0
attr interpolationmode  none
attr title  "ping tx seq, count"
scalar hierarchical.gw[1].pingTestApp[0] 	numLost:last 	-nan
attr interpolationmode  none
attr title  "pings lost, last"
statistic hierarchical.gw[1].pingTestApp[0] 	rtt:histogram
field count 0
field mean -nan
field stddev -nan
field sum 0
field sqrsum 0
field min -nan
field max -nan
attr interpolationmode  none
attr title  "ping round-trip time, histogram"
attr unit  s
bin	-INF	0
bin	-0.5	0
bin	-0.46666666666667	0
bin	-0.43333333333333	0
bin	-0.4	0
bin	-0.36666666666667	0
bin	-0.33333333333333	0
bin	-0.3	0
bin	-0.26666666666667	0
bin	-0.23333333333333	0
bin	-0.2	0
bin	-0.16666666666667	0
bin	-0.13333333333333	0
bin	-0.1	0
bin	-0.066666666666667	0
bin	-0.033333333333333	0
bin	0	0
bin	0.033333333333333	0
bin	0.066666666666667	0
bin	0.1	0
bin	0.13333333333333	0
bin	0.16666666666667	0
bin	0.2	0
bin	0.23333333333333	0
bin	0.26666666666667	0
bin	0.3	0
bin	0.33333333333333	0
bin	0.36666666666667	0
bin	0.4	0
bin	0.43333333333333	0
bin	0.46666666666667	0
bin	0.5	0
scalar hierarchical.gw[2].networkLayer.arp 	failedARPResolution:count 	0
attr title  "ARP failed resolutions, count"
scalar hierarchical.gw[2].networkLayer.arp 	completedARPResolution:count 	26
attr title  "ARP completed resolutions, count"
scalar hierarchical.gw[2].networkLayer.arp 	initiatedARPResolution:count 	3
attr title  "ARP initiated resolutions, count"
scalar hierarchical.gw[2].networkLayer.arp 	sentReply:count 	13
attr title  "ARP replies sent, count"
scalar hierarchical.gw[2].networkLayer.arp 	sentReq:count 	3
attr title  "ARP request sent, count"
scalar hierarchical.gw[2].lo0.lo 	droppedPkBitError:count 	0
attr interpolationmode  none
attr source  dropPkBitError
attr title  "packets dropped/bit error, count"
scalar hierarchical.gw[2].lo0.lo 	droppedPkBitError:sum(packetBytes) 	0
attr interpolationmode  none
attr source  dropPkBitError
attr title  "packets dropped/bit error, sum(packetBytes)"
scalar hierarchical.gw[2].lo0.lo 	rcvdPkFromHL:count 	56
attr interpolationmode  none
attr source  packetReceivedFromUpper
attr title  "packets received from higher layer, count"
scalar hierarchical.gw[2].lo0.lo 	rcvdPkFromHL:sum(packetBytes) 	5394
attr interpolationmode  none
attr source  packetReceivedFromUpper
attr title  "packets received from higher layer, sum(packetBytes)"
scalar hierarchical.gw[2].lo0.lo 	passedUpPk:count 	56
attr interpolationmode  none
attr source  packetSentToUpper
attr title  "packets passed to higher layer, count"
scalar hierarchical.gw[2].lo0.lo 	passedUpPk:sum(packetBytes) 	5394
attr interpolationmode  none
attr source  packetSentToUpper
attr title  "packets passed to higher layer, sum(packetBytes)"
scalar hierarchical.gw[2].wlan[0].mgmt 	dataQueueLen:max 	0
attr interpolationmode  sample-hold
attr title  "data queue length, max"
scalar hierarchical.gw[2].wlan[0].mgmt 	dataQueueLen:timeavg 	0
attr interpolationmode  sample-hold
attr title  "data queue length, timeavg"
scalar hierarchical.gw[2].wlan[0].mgmt 	dropPkByQueue:count 	0
attr interpolationmode  none
attr source  dropPkByQueue
attr title  "packets dropped by queue, count"
scalar hierarchical.gw[2].wlan[0].mgmt 	dropPkByQueue:sum(packetBytes) 	0
attr interpolationmode  none
attr source  dropPkByQueue
attr title  "packets dropped by queue, sum(packetBytes)"
scalar hierarchical.gw[2].wlan[0].mac 	"number of received packets" 	0
scalar hierarchical.gw[2].wlan[0].mac 	"number of collisions" 	0
scalar hierarchical.gw[2].wlan[0].mac 	"number of internal collisions" 	0
scalar hierarchical.gw[2].wlan[0].mac 	"number of retry for AC 0" 	0
scalar hierarchical.gw[2].wlan[0].mac 	"sent and received bits" 	577872
scalar hierarchical.gw[2].wlan[0].mac 	"sent packet within AC 0" 	0
scalar hierarchical.gw[2].wlan[0].mac 	"sent in TXOP " 	0
scalar hierarchical.gw[2].wlan[0].mac 	"sentWithoutRetry AC 0" 	0
scalar hierarchical.gw[2].wlan[0].mac 	"numGivenUp AC 0" 	0
scalar hierarchical.gw[2].wlan[0].mac 	"numDropped AC 0" 	0
scalar hierarchical.gw[2].wlan[0].mac 	rcvdPkFromHL:count 	773
attr interpolationmode  none
attr source  packetReceivedFromUpper
attr title  "packets received from higher layer, count"
scalar hierarchical.gw[2].wlan[0].mac 	rcvdPkFromHL:sum(packetBytes) 	72234
attr interpolationmode  none
attr source  packetReceivedFromUpper
attr title  "packets received from higher layer, sum(packetBytes)"
scalar hierarchical.gw[2].wlan[0].mac 	passedUpPk:count 	0
attr interpolationmode  none
attr source  packetSentToUpper
attr title  "packets passed to higher layer, count"
scalar hierarchical.gw[2].wlan[0].mac 	passedUpPk:sum(packetBytes) 	0
attr interpolationmode  none
attr source  packetSentToUpper
attr title  "packets passed to higher layer, sum(packetBytes)"
scalar hierarchical.gw[2].wlan[0].mac 	rcvdPkFromLL:count 	0
attr interpolationmode  none
attr source  packetReceivedFromLower
attr title  "packets received from lower layer, count"
scalar hierarchical.gw[2].wlan[0].mac 	rcvdPkFromLL:sum(packetBytes) 	0
attr interpolationmode  none
attr source  packetReceivedFromLower
attr title  "packets received from lower layer, sum(packetBytes)"
scalar hierarchical.gw[2].wlan[0].mac 	sentDownPk:count 	773
attr interpolationmode  none
attr source  packetSentToLower
attr title  "packets sent to lower layer, count"
scalar hierarchical.gw[2].wlan[0].mac 	sentDownPk:sum(packetBytes) 	72234
attr interpolationmode  none
attr source  packetSentToLower
attr title  "packets sent to lower layer, sum(packetBytes)"
scalar hierarchical.gw[2].wlan[0].radio 	lossRate:min 	-nan
attr interpolationmode  backward-sample-hold
attr title  "packet loss rate, min"
scalar hierarchical.gw[2].wlan[0].radio 	lossRate:max 	-nan
attr interpolationmode  backward-sample-hold
attr title  "packet loss rate, max"
scalar hierarchical.gw[2].wlan[0].radio 	lossRate:timeavg 	-nan
attr interpolationmode  backward-sample-hold
attr title  "packet loss rate, timeavg"
statistic hierarchical.gw[2].wlan[0].radio 	channelNo:histogram
field count 1
field mean 2
field stddev -nan
field sum 2
field sqrsum 4
field min 2
field max 2
attr interpolationmode  sample-hold
attr title  "channel no, histogram"
bin	-INF	0
bin	1	0
bin	2	1
bin	3	0
scalar hierarchical.gw[2].wlan[0].radio 	bitrate:min 	11000000
attr interpolationmode  sample-hold
attr title  "tx bitrate, min"
attr unit  bps
scalar hierarchical.gw[2].wlan[0].radio 	bitrate:max 	11000000
attr interpolationmode  sample-hold
attr title  "tx bitrate, max"
attr unit  bps
scalar hierarchical.gw[2].wlan[0].radio 	bitrate:timeavg 	11000000
attr interpolationmode  sample-hold
attr title  "tx bitrate, timeavg"
attr unit  bps
scalar hierarchical.gw[2].wlan[0].radio 	radioState:count 	1547
attr interpolationmode  sample-hold
attr title  "radio state (enum), count"
scalar hierarchical.gw[2].wlan[1].mgmt 	dataQueueLen:max 	9
attr interpolationmode  sample-hold
attr title  "data queue length, max"
scalar hierarchical.gw[2].wlan[1].mgmt 	dataQueueLen:timeavg 	0.0011590335255556
attr interpolationmode  sample-hold
attr title  "data queue length, timeavg"
scalar hierarchical.gw[2].wlan[1].mgmt 	dropPkByQueue:count 	0
attr interpolationmode  none
attr source  dropPkByQueue
attr title  "packets dropped by queue, count"
scalar hierarchical.gw[2].wlan[1].mgmt 	dropPkByQueue:sum(packetBytes) 	0
attr interpolationmode  none
attr source  dropPkByQueue
attr title  "packets dropped by queue, sum(packetBytes)"
scalar hierarchical.gw[2].wlan[1].mac 	"number of received packets" 	48948
scalar hierarchical.gw[2].wlan[1].mac 	"number of collisions" 	14851
scalar hierarchical.gw[2].wlan[1].mac 	"number of internal collisions" 	0
scalar hierarchical.gw[2].wlan[1].mac 	"number of retry for AC 0" 	5411
scalar hierarchical.gw[2].wlan[1].mac 	"sent and received bits" 	81163226
scalar hierarchical.gw[2].wlan[1].mac 	"sent packet within AC 0" 	48948
scalar hierarchical.gw[2].wlan[1].mac 	"sent in TXOP " 	0
scalar hierarchical.gw[2].wlan[1].mac 	"sentWithoutRetry AC 0" 	45957
scalar hierarchical.gw[2].wlan[1].mac 	"numGivenUp AC 0" 	0
scalar hierarchical.gw[2].wlan[1].mac 	"numDropped AC 0" 	0
scalar hierarchical.gw[2].wlan[1].mac 	rcvdPkFromHL:count 	50249
attr interpolationmode  none
attr source  packetReceivedFromUpper
attr title  "packets received from higher layer, count"
scalar hierarchical.gw[2].wlan[1].mac 	rcvdPkFromHL:sum(packetBytes) 	10145851
attr interpolationmode  none
attr source  packetReceivedFromUpper
attr title  "packets received from higher layer, sum(packetBytes)"
scalar hierarchical.gw[2].wlan[1].mac 	passedUpPk:count 	51302
attr interpolationmode  none
attr source  packetSentToUpper
attr title  "packets passed to higher layer, count"
scalar hierarchical.gw[2].wlan[1].mac 	passedUpPk:sum(packetBytes) 	10260655
attr interpolationmode  none
attr source  packetSentToUpper
attr title  "packets passed to higher layer, sum(packetBytes)"
scalar hierarchical.gw[2].wlan[1].mac 	rcvdPkFromLL:count 	203533
attr interpolationmode  none
attr source  packetReceivedFromLower
attr title  "packets received from lower layer, count"
scalar hierarchical.gw[2].wlan[1].mac 	rcvdPkFromLL:sum(packetBytes) 	23052822
attr interpolationmode  none
attr source  packetReceivedFromLower
attr title  "packets received from lower layer, sum(packetBytes)"
scalar hierarchical.gw[2].wlan[1].mac 	sentDownPk:count 	104608
attr interpolationmode  none
attr source  packetSentToLower
attr title  "packets sent to lower layer, count"
scalar hierarchical.gw[2].wlan[1].mac 	sentDownPk:sum(packetBytes) 	11902381
attr interpolationmode  none
attr source  packetSentToLower
attr title  "packets sent to lower layer, sum(packetBytes)"
scalar hierarchical.gw[2].wlan[1].radio 	lossRate:min 	0
attr interpolationmode  backward-sample-hold
attr title  "packet loss rate, min"
scalar hierarchical.gw[2].wlan[1].radio 	lossRate:max 	0.52
attr interpolationmode  backward-sample-hold
attr title  "packet loss rate, max"
scalar hierarchical.gw[2].wlan[1].radio 	lossRate:timeavg 	0.070610885254796
attr interpolationmode  backward-sample-hold
attr title  "packet loss rate, timeavg"
statistic hierarchical.gw[2].wlan[1].radio 	channelNo:histogram
field count 1
field mean 5
field stddev -nan
field sum 5
field sqrsum 25
field min 5
field max 5
attr interpolationmode  sample-hold
attr title  "channel no, histogram"
bin	-INF	0
bin	4	0
bin	5	1
bin	6	0
scalar hierarchical.gw[2].wlan[1].radio 	bitrate:min 	11000000
attr interpolationmode  sample-hold
attr title  "tx bitrate, min"
attr unit  bps
scalar hierarchical.gw[2].wlan[1].radio 	bitrate:max 	11000000
attr interpolationmode  sample-hold
attr title  "tx bitrate, max"
attr unit  bps
scalar hierarchical.gw[2].wlan[1].radio 	bitrate:timeavg 	11000000
attr interpolationmode  sample-hold
attr title  "tx bitrate, timeavg"
attr unit  bps
scalar hierarchical.gw[2].wlan[1].radio 	radioState:count 	627113
attr interpolationmode  sample-hold
attr title  "radio state (enum), count"
scalar hierarchical.gw[2].manetrouting 	OLSR_HNA_Messages_(Forwarded) 	0
scalar hierarchical.gw[2].manetrouting 	OLSR_TC_Messages_(Forwarded) 	0
scalar hierarchical.gw[2].manetrouting 	OLSR_Total_HELLO 	513
scalar hierarchical.gw[2].manetrouting 	OLSR_Total_HNA_(originated) 	190
scalar hierarchical.gw[2].manetrouting 	OLSR_Total_TC 	0
scalar hierarchical.gw[2].manetrouting 	OLSR_Total_Messages_Sent 	703
scalar hierarchical.gw[2].backbonemanetrouting 	OLSR_HNA_Messages_(Forwarded) 	0
scalar hierarchical.gw[2].backbonemanetrouting 	OLSR_TC_Messages_(Forwarded) 	339
scalar hierarchical.gw[2].backbonemanetrouting 	OLSR_Total_HELLO 	515
scalar hierarchical.gw[2].backbonemanetrouting 	OLSR_Total_HNA_(originated) 	0
scalar hierarchical.gw[2].backbonemanetrouting 	OLSR_Total_TC 	188
scalar hierarchical.gw[2].backbonemanetrouting 	OLSR_Total_Messages_Sent 	1042
scalar hierarchical.gw[2].udp 	droppedPkBadChecksum:count 	0
attr interpolationmode  none
attr title  "packets dropped (checksum error), count"
scalar hierarchical.gw[2].udp 	droppedPkWrongPort:count 	0
attr interpolationmode  none
attr title  "packets dropped (wrong port), count"
scalar hierarchical.gw[2].udp 	passedUpPk:count 	919
attr interpolationmode  none
attr title  "packets passed up, count"
scalar hierarchical.gw[2].udp 	rcvdPk:count 	919
attr interpolationmode  none
attr source  rcvdPk
attr title  "packets received, count"
scalar hierarchical.gw[2].udp 	rcvdPk:sum(packetBytes) 	59318
attr interpolationmode  none
attr source  rcvdPk
attr title  "packets received, sum(packetBytes)"
scalar hierarchical.gw[2].udp 	sentPk:count 	969
attr interpolationmode  none
attr source  sentPk
attr title  "packets sent, count"
scalar hierarchical.gw[2].udp 	sentPk:sum(packetBytes) 	65249
attr interpolationmode  none
attr source  sentPk
attr title  "packets sent, sum(packetBytes)"
scalar hierarchical.gw[2].pingApp[0] 	numOutOfOrderArrivals:last 	-nan
attr interpolationmode  none
attr title  "ping out-of-order arrivals, last"
scalar hierarchical.gw[2].pingApp[0] 	pingRxSeq:count 	0
attr interpolationmode  none
attr title  "ping rx seq, count"
scalar hierarchical.gw[2].pingApp[0] 	pingTxSeq:count 	0
attr interpolationmode  none
attr title  "ping tx seq, count"
scalar hierarchical.gw[2].pingApp[0] 	numLost:last 	-nan
attr interpolationmode  none
attr title  "pings lost, last"
statistic hierarchical.gw[2].pingApp[0] 	rtt:histogram
field count 0
field mean -nan
field stddev -nan
field sum 0
field sqrsum 0
field min -nan
field max -nan
attr interpolationmode  none
attr title  "ping round-trip time, histogram"
attr unit  s
bin	-INF	0
bin	-0.5	0
bin	-0.46666666666667	0
bin	-0.43333333333333	0
bin	-0.4	0
bin	-0.36666666666667	0
bin	-0.33333333333333	0
bin	-0.3	0
bin	-0.26666666666667	0
bin	-0.23333333333333	0
bin	-0.2	0
bin	-0.16666666666667	0
bin	-0.13333333333333	0
bin	-0.1	0
bin	-0.066666666666667	0
bin	-0.033333333333333	0
bin	0	0
bin	0.033333333333333	0
bin	0.066666666666667	0
bin	0.1	0
bin	0.13333333333333	0
bin	0.16666666666667	0
bin	0.2	0
bin	0.23333333333333	0
bin	0.26666666666667	0
bin	0.3	0
bin	0.33333333333333	0
bin	0.36666666666667	0
bin	0.4	0
bin	0.43333333333333	0
bin	0.46666666666667	0
bin	0.5	0
scalar hierarchical.gw[2].pingTestApp[0] 	numOutOfOrderArrivals:last 	-nan
attr interpolationmode  none
attr title  "ping out-of-order arrivals, last"
scalar hierarchical.gw[2].pingTestApp[0] 	pingRxSeq:count 	0
attr interpolationmode  none
attr title  "ping rx seq, count"
scalar hierarchical.gw[2].pingTestApp[0] 	pingTxSeq:count 	0
attr interpolationmode  none
attr title  "ping tx seq, count"
scalar hierarchical.gw[2].pingTestApp[0] 	numLost:last 	-nan
attr interpolationmode  none
attr title  "pings lost, last"
statistic hierarchical.gw[2].pingTestApp[0] 	rtt:histogram
field count 0
field mean -nan
field stddev -nan
field sum 0
field sqrsum 0
field min -nan
field max -nan
attr interpolationmode  none
attr title  "ping round-trip time, histogram"
attr unit  s
bin	-INF	0
bin	-0.5	0
bin	-0.46666666666667	0
bin	-0.43333333333333	0
bin	-0.4	0
bin	-0.36666666666667	0
bin	-0.33333333333333	0
bin	-0.3	0
bin	-0.26666666666667	0
bin	-0.23333333333333	0
bin	-0.2	0
bin	-0.16666666666667	0
bin	-0.13333333333333	0
bin	-0.1	0
bin	-0.066666666666667	0
bin	-0.033333333333333	0
bin	0	0
bin	0.033333333333333	0
bin	0.066666666666667	0
bin	0.1	0
bin	0.13333333333333	0
bin	0.16666666666667	0
bin	0.2	0
bin	0.23333333333333	0
bin	0.26666666666667	0
bin	0.3	0
bin	0.33333333333333	0
bin	0.36666666666667	0
bin	0.4	0
bin	0.43333333333333	0
bin	0.46666666666667	0
bin	0.5	0
scalar hierarchical.gw[3].networkLayer.arp 	failedARPResolution:count 	0
attr title  "ARP failed resolutions, count"
scalar hierarchical.gw[3].networkLayer.arp 	completedARPResolution:count 	16
attr title  "ARP completed resolutions, count"
scalar hierarchical.gw[3].networkLayer.arp 	initiatedARPResolution:count 	13
attr title  "ARP initiated resolutions, count"
scalar hierarchical.gw[3].networkLayer.arp 	sentReply:count 	3
attr title  "ARP replies sent, count"
scalar hierarchical.gw[3].networkLayer.arp 	sentReq:count 	13
attr title  "ARP request sent, count"
scalar hierarchical.gw[3].lo0.lo 	droppedPkBitError:count 	0
attr interpolationmode  none
attr source  dropPkBitError
attr title  "packets dropped/bit error, count"
scalar hierarchical.gw[3].lo0.lo 	droppedPkBitError:sum(packetBytes) 	0
attr interpolationmode  none
attr source  dropPkBitError
attr title  "packets dropped/bit error, sum(packetBytes)"
scalar hierarchical.gw[3].lo0.lo 	rcvdPkFromHL:count 	23
attr interpolationmode  none
attr source  packetReceivedFromUpper
attr title  "packets received from higher layer, count"
scalar hierarchical.gw[3].lo0.lo 	rcvdPkFromHL:sum(packetBytes) 	1988
attr interpolationmode  none
attr source  packetReceivedFromUpper
attr title  "packets received from higher layer, sum(packetBytes)"
scalar hierarchical.gw[3].lo0.lo 	passedUpPk:count 	23
attr interpolationmode  none
attr source  packetSentToUpper
attr title  "packets passed to higher layer, count"
scalar hierarchical.gw[3].lo0.lo 	passedUpPk:sum(packetBytes) 	1988
attr interpolationmode  none
attr source  packetSentToUpper
attr title  "packets passed to higher layer, sum(packetBytes)"
scalar hierarchical.gw[3].wlan[0].mgmt 	dataQueueLen:max 	0
attr interpolationmode  sample-hold
attr title  "data queue length, max"
scalar hierarchical.gw[3].wlan[0].mgmt 	dataQueueLen:timeavg 	0
attr interpolationmode  sample-hold
attr title  "data queue length, timeavg"
scalar hierarchical.gw[3].wlan[0].mgmt 	dropPkByQueue:count 	0
attr interpolationmode  none
attr source  dropPkByQueue
attr title  "packets dropped by queue, count"
scalar hierarchical.gw[3].wlan[0].mgmt 	dropPkByQueue:sum(packetBytes) 	0
attr interpolationmode  none
attr source  dropPkByQueue
attr title  "packets dropped by queue, sum(packetBytes)"
scalar hierarchical.gw[3].wlan[0].mac 	"number of received packets" 	0
scalar hierarchical.gw[3].wlan[0].mac 	"number of collisions" 	0
scalar hierarchical.gw[3].wlan[0].mac 	"number of internal collisions" 	0
scalar hierarchical.gw[3].wlan[0].mac 	"number of retry for AC 0" 	0
scalar hierarchical.gw[3].wlan[0].mac 	"sent and received bits" 	565696
scalar hierarchical.gw[3].wlan[0].mac 	"sent packet within AC 0" 	0
scalar hierarchical.gw[3].wlan[0].mac 	"sent in TXOP " 	0
scalar hierarchical.gw[3].wlan[0].mac 	"sentWithoutRetry AC 0" 	0
scalar hierarchical.gw[3].wlan[0].mac 	"numGivenUp AC 0" 	0
scalar hierarchical.gw[3].wlan[0].mac 	"numDropped AC 0" 	0
scalar hierarchical.gw[3].wlan[0].mac 	rcvdPkFromHL:count 	752
attr interpolationmode  none
attr source  packetReceivedFromUpper
attr title  "packets received from higher layer, count"
scalar hierarchical.gw[3].wlan[0].mac 	rcvdPkFromHL:sum(packetBytes) 	70712
attr interpolationmode  none
attr source  packetReceivedFromUpper
attr title  "packets received from higher layer, sum(packetBytes)"
scalar hierarchical.gw[3].wlan[0].mac 	passedUpPk:count 	0
attr interpolationmode  none
attr source  packetSentToUpper
attr title  "packets passed to higher layer, count"
scalar hierarchical.gw[3].wlan[0].mac 	passedUpPk:sum(packetBytes) 	0
attr interpolationmode  none
attr source  packetSentToUpper
attr title  "packets passed to higher layer, sum(packetBytes)"
scalar hierarchical.gw[3].wlan[0].mac 	rcvdPkFromLL:count 	0
attr interpolationmode  none
attr source  packetReceivedFromLower
attr title  "packets received from lower layer, count"
scalar hierarchical.gw[3].wlan[0].mac 	rcvdPkFromLL:sum(packetBytes) 	0
attr interpolationmode  none
attr source  packetReceivedFromLower
attr title  "packets received from lower layer, sum(packetBytes)"
scalar hierarchical.gw[3].wlan[0].mac 	sentDownPk:count 	752
attr interpolationmode  none
attr source  packetSentToLower
attr title  "packets sent to lower layer, count"
scalar hierarchical.gw[3].wlan[0].mac 	sentDownPk:sum(packetBytes) 	70712
attr interpolationmode  none
attr source  packetSentToLower
attr title  "packets sent to lower layer, sum(packetBytes)"
scalar hierarchical.gw[3].wlan[0].radio 	lossRate:min 	-nan
attr interpolationmode  backward-sample-hold
attr title  "packet loss rate, min"
scalar hierarchical.gw[3].wlan[0].radio 	lossRate:max 	-nan
attr interpolationmode  backward-sample-hold
attr title  "packet loss rate, max"
scalar hierarchical.gw[3].wlan[0].radio 	lossRate:timeavg 	-nan
attr interpolationmode  backward-sample-hold
attr title  "packet loss rate, timeavg"
statistic hierarchical.gw[3].wlan[0].radio 	channelNo:histogram
field count 1
field mean 3
field stddev -nan
field sum 3
field sqrsum 9
field min 3
field max 3
attr interpolationmode  sample-hold
attr title  "channel no, histogram"
bin	-INF	0
bin	2	0
bin	3	1
bin	4	0
scalar hierarchical.gw[3].wlan[0].radio 	bitrate:min 	11000000
attr interpolationmode  sample-hold
attr title  "tx bitrate, min"
attr unit  bps
scalar hierarchical.gw[3].wlan[0].radio 	bitrate:max 	11000000
attr interpolationmode  sample-hold
attr title  "tx bitrate, max"
attr unit  bps
scalar hierarchical.gw[3].wlan[0].radio 	bitrate:timeavg 	11000000
attr interpolationmode  sample-hold
attr title  "tx bitrate, timeavg"
attr unit  bps
scalar hierarchical.gw[3].wlan[0].radio 	radioState:count 	1505
attr interpolationmode  sample-hold
attr title  "radio state (enum), count"
scalar hierarchical.gw[3].wlan[1].mgmt 	dataQueueLen:max 	3
attr interpolationmode  sample-hold
attr title  "data queue length, max"
scalar hierarchical.gw[3].wlan[1].mgmt 	dataQueueLen:timeavg 	0.00088080333777778
attr interpolationmode  sample-hold
attr title  "data queue length, timeavg"
scalar hierarchical.gw[3].wlan[1].mgmt 	dropPkByQueue:count 	0
attr interpolationmode  none
attr source  dropPkByQueue
attr title  "packets dropped by queue, count"
scalar hierarchical.gw[3].wlan[1].mgmt 	dropPkByQueue:sum(packetBytes) 	0
attr interpolationmode  none
attr source  dropPkByQueue
attr title  "packets dropped by queue, sum(packetBytes)"
scalar hierarchical.gw[3].wlan[1].mac 	"number of received packets" 	48317
scalar hierarchical.gw[3].wlan[1].mac 	"number of collisions" 	12222
scalar hierarchical.gw[3].wlan[1].mac 	"number of internal collisions" 	0
scalar hierarchical.gw[3].wlan[1].mac 	"number of retry for AC 0" 	5292
scalar hierarchical.gw[3].wlan[1].mac 	"sent and received bits" 	80461829
scalar hierarchical.gw[3].wlan[1].mac 	"sent packet within AC 0" 	48236
scalar hierarchical.gw[3].wlan[1].mac 	"sent in TXOP " 	0
scalar hierarchical.gw[3].wlan[1].mac 	"sentWithoutRetry AC 0" 	45915
scalar hierarchical.gw[3].wlan[1].mac 	"numGivenUp AC 0" 	2
scalar hierarchical.gw[3].wlan[1].mac 	"numDropped AC 0" 	0
scalar hierarchical.gw[3].wlan[1].mac 	rcvdPkFromHL:count 	49521
attr interpolationmode  none
attr source  packetReceivedFromUpper
attr title  "packets received from higher layer, count"
scalar hierarchical.gw[3].wlan[1].mac 	rcvdPkFromHL:sum(packetBytes) 	10058437
attr interpolationmode  none
attr source  packetReceivedFromUpper
attr title  "packets received from higher layer, sum(packetBytes)"
scalar hierarchical.gw[3].wlan[1].mac 	passedUpPk:count 	50093
attr interpolationmode  none
attr source  packetSentToUpper
attr title  "packets passed to higher layer, count"
scalar hierarchical.gw[3].wlan[1].mac 	passedUpPk:sum(packetBytes) 	10114196
attr interpolationmode  none
attr source  packetSentToUpper
attr title  "packets passed to higher layer, sum(packetBytes)"
scalar hierarchical.gw[3].wlan[1].mac 	rcvdPkFromLL:count 	159163
attr interpolationmode  none
attr source  packetReceivedFromLower
attr title  "packets received from lower layer, count"
scalar hierarchical.gw[3].wlan[1].mac 	rcvdPkFromLL:sum(packetBytes) 	18541211
attr interpolationmode  none
attr source  packetReceivedFromLower
attr title  "packets received from lower layer, sum(packetBytes)"
scalar hierarchical.gw[3].wlan[1].mac 	sentDownPk:count 	103130
attr interpolationmode  none
attr source  packetSentToLower
attr title  "packets sent to lower layer, count"
scalar hierarchical.gw[3].wlan[1].mac 	sentDownPk:sum(packetBytes) 	11788804
attr interpolationmode  none
attr source  packetSentToLower
attr title  "packets sent to lower layer, sum(packetBytes)"
scalar hierarchical.gw[3].wlan[1].radio 	lossRate:min 	0
attr interpolationmode  backward-sample-hold
attr title  "packet loss rate, min"
scalar hierarchical.gw[3].wlan[1].radio 	lossRate:max 	0.4
attr interpolationmode  backward-sample-hold
attr title  "packet loss rate, max"
scalar hierarchical.gw[3].wlan[1].radio 	lossRate:timeavg 	0.070495474914826
attr interpolationmode  backward-sample-hold
attr title  "packet loss rate, timeavg"
statistic hierarchical.gw[3].wlan[1].radio 	channelNo:histogram
field count 1
field mean 5
field stddev -nan
field sum 5
field sqrsum 25
field min 5
field max 5
attr interpolationmode  sample-hold
attr title  "channel no, histogram"
bin	-INF	0
bin	4	0
bin	5	1
bin	6	0
scalar hierarchical.gw[3].wlan[1].radio 	bitrate:min 	11000000
attr interpolationmode  sample-hold
attr title  "tx bitrate, min"
attr unit  bps
scalar hierarchical.gw[3].wlan[1].radio 	bitrate:max 	11000000
attr interpolationmode  sample-hold
attr title  "tx bitrate, max"
attr unit  bps
scalar hierarchical.gw[3].wlan[1].radio 	bitrate:timeavg 	11000000
attr interpolationmode  sample-hold
attr title  "tx bitrate, timeavg"
attr unit  bps
scalar hierarchical.gw[3].wlan[1].radio 	radioState:count 	523313
attr interpolationmode  sample-hold
attr title  "radio state (enum), count"
scalar hierarchical.gw[3].manetrouting 	OLSR_HNA_Messages_(Forwarded) 	0
scalar hierarchical.gw[3].manetrouting 	OLSR_TC_Messages_(Forwarded) 	0
scalar hierarchical.gw[3].manetrouting 	OLSR_Total_HELLO 	514
scalar hierarchical.gw[3].manetrouting 	OLSR_Total_HNA_(originated) 	190
scalar hierarchical.gw[3].manetrouting 	OLSR_Total_TC 	0
scalar hierarchical.gw[3].manetrouting 	OLSR_Total_Messages_Sent 	704
scalar hierarchical.gw[3].backbonemanetrouting 	OLSR_HNA_Messages_(Forwarded) 	0
scalar hierarchical.gw[3].backbonemanetrouting 	OLSR_TC_Messages_(Forwarded) 	334
scalar hierarchical.gw[3].backbonemanetrouting 	OLSR_Total_HELLO 	512
scalar hierarchical.gw[3].backbonemanetrouting 	OLSR_Total_HNA_(originated) 	0
scalar hierarchical.gw[3].backbonemanetrouting 	OLSR_Total_TC 	188
scalar hierarchical.gw[3].backbonemanetrouting 	OLSR_Total_Messages_Sent 	1034
scalar hierarchical.gw[3].udp 	droppedPkBadChecksum:count 	0
attr interpolationmode  none
attr title  "packets dropped (checksum error), count"
scalar hierarchical.gw[3].udp 	droppedPkWrongPort:count 	0
attr interpolationmode  none
attr title  "packets dropped (wrong port), count"
scalar hierarchical.gw[3].udp 	passedUpPk:count 	834
attr interpolationmode  none
attr title  "packets passed up, count"
scalar hierarchical.gw[3].udp 	rcvdPk:count 	834
attr interpolationmode  none
attr source  rcvdPk
attr title  "packets received, count"
scalar hierarchical.gw[3].udp 	rcvdPk:sum(packetBytes) 	52414
attr interpolationmode  none
attr source  rcvdPk
attr title  "packets received, sum(packetBytes)"
scalar hierarchical.gw[3].udp 	sentPk:count 	848
attr interpolationmode  none
attr source  sentPk
attr title  "packets sent, count"
scalar hierarchical.gw[3].udp 	sentPk:sum(packetBytes) 	52810
attr interpolationmode  none
attr source  sentPk
attr title  "packets sent, sum(packetBytes)"
scalar hierarchical.gw[3].pingApp[0] 	numOutOfOrderArrivals:last 	-nan
attr interpolationmode  none
attr title  "ping out-of-order arrivals, last"
scalar hierarchical.gw[3].pingApp[0] 	pingRxSeq:count 	0
attr interpolationmode  none
attr title  "ping rx seq, count"
scalar hierarchical.gw[3].pingApp[0] 	pingTxSeq:count 	0
attr interpolationmode  none
attr title  "ping tx seq, count"
scalar hierarchical.gw[3].pingApp[0] 	numLost:last 	-nan
attr interpolationmode  none
attr title  "pings lost, last"
statistic hierarchical.gw[3].pingApp[0] 	rtt:histogram
field count 0
field mean -nan
field stddev -nan
field sum 0
field sqrsum 0
field min -nan
field max -nan
attr interpolationmode  none
attr title  "ping round-trip time, histogram"
attr unit  s
bin	-INF	0
bin	-0.5	0
bin	-0.46666666666667	0
bin	-0.43333333333333	0
bin	-0.4	0
bin	-0.36666666666667	0
bin	-0.33333333333333	0
bin	-0.3	0
bin	-0.26666666666667	0
bin	-0.23333333333333	0
bin	-0.2	0
bin	-0.16666666666667	0
bin	-0.13333333333333	0
bin	-0.1	0
bin	-0.066666666666667	0
bin	-0.033333333333333	0
bin	0	0
bin	0.033333333333333	0
bin	0.066666666666667	0
bin	0.1	0
bin	0.13333333333333	0
bin	0.16666666666667	0
bin	0.2	0
bin	0.23333333333333	0
bin	0.26666666666667	0
bin	0.3	0
bin	0.33333333333333	0
bin	0.36666666666667	0
bin	0.4	0
bin	0.43333333333333	0
bin	0.46666666666667	0
bin	0.5	0
scalar hierarchical.gw[3].pingTestApp[0] 	numOutOfOrderArrivals:last 	-nan
attr interpolationmode  none
attr title  "ping out-of-order arrivals, last"
scalar hierarchical.gw[3].pingTestApp[0] 	pingRxSeq:count 	0
attr interpolationmode  none
attr title  "ping rx seq, count"
scalar hierarchical.gw[3].pingTestApp[0] 	pingTxSeq:count 	0
attr interpolationmode  none
attr title  "ping tx seq, count"
scalar hierarchical.gw[3].pingTestApp[0] 	numLost:last 	-nan
attr interpolationmode  none
attr title  "pings lost, last"
statistic hierarchical.gw[3].pingTestApp[0] 	rtt:histogram
field count 0
field mean -nan
field stddev -nan
field sum 0
field sqrsum 0
field min -nan
field max -nan
attr interpolationmode  none
attr title  "ping round-trip time, histogram"
attr unit  s
bin	-INF	0
bin	-0.5	0
bin	-0.46666666666667	0
bin	-0.43333333333333	0
bin	-0.4	0
bin	-0.36666666666667	0
bin	-0.33333333333333	0
bin	-0.3	0
bin	-0.26666666666667	0
bin	-0.23333333333333	0
bin	-0.2	0
bin	-0.16666666666667	0
bin	-0.13333333333333	0
bin	-0.1	0
bin	-0.066666666666667	0
bin	-0.033333333333333	0
bin	0	0
bin	0.033333333333333	0
bin	0.066666666666667	0
bin	0.1	0
bin	0.13333333333333	0
bin	0.16666666666667	0
bin	0.2	0
bin	0.23333333333333	0
bin	0.26666666666667	0
bin	0.3	0
bin	0.33333333333333	0
bin	0.36666666666667	0
bin	0.4	0
bin	0.43333333333333	0
bin	0.46666666666667	0
bin	0.5	0
scalar hierarchical.gw[4].networkLayer.arp 	failedARPResolution:count 	0
attr title  "ARP failed resolutions, count"
scalar hierarchical.gw[4].networkLayer.arp 	completedARPResolution:count 	77
attr title  "ARP completed resolutions, count"
scalar hierarchical.gw[4].networkLayer.arp 	initiatedARPResolution:count 	39
attr title  "ARP initiated resolutions, count"
scalar hierarchical.gw[4].networkLayer.arp 	sentReply:count 	10
attr title  "ARP replies sent, count"
scalar hierarchical.gw[4].networkLayer.arp 	sentReq:count 	39
attr title  "ARP request sent, count"
scalar hierarchical.gw[4].lo0.lo 	droppedPkBitError:count 	0
attr interpolationmode  none
attr source  dropPkBitError
attr title  "packets dropped/bit error, count"
scalar hierarchical.gw[4].lo0.lo 	droppedPkBitError:sum(packetBytes) 	0
attr interpolationmode  none
attr source  dropPkBitError
attr title  "packets dropped/bit error, sum(packetBytes)"
scalar hierarchical.gw[4].lo0.lo 	rcvdPkFromHL:count 	53
attr interpolationmode  none
attr source  packetReceivedFromUpper
attr title  "packets received from higher layer, count"
scalar hierarchical.gw[4].lo0.lo 	rcvdPkFromHL:sum(packetBytes) 	4879
attr interpolationmode  none
attr source  packetReceivedFromUpper
attr title  "packets received from higher layer, sum(packetBytes)"
scalar hierarchical.gw[4].lo0.lo 	passedUpPk:count 	53
attr interpolationmode  none
attr source  packetSentToUpper
attr title  "packets passed to higher layer, count"
scalar hierarchical.gw[4].lo0.lo 	passedUpPk:sum(packetBytes) 	4879
attr interpolationmode  none
attr source  packetSentToUpper
attr title  "packets passed to higher layer, sum(packetBytes)"
scalar hierarchical.gw[4].wlan[0].mgmt 	dataQueueLen:max 	2
attr interpolationmode  sample-hold
attr title  "data queue length, max"
scalar hierarchical.gw[4].wlan[0].mgmt 	dataQueueLen:timeavg 	1.1305046666667e-05
attr interpolationmode  sample-hold
attr title  "data queue length, timeavg"
scalar hierarchical.gw[4].wlan[0].mgmt 	dropPkByQueue:count 	0
attr interpolationmode  none
attr source  dropPkByQueue
attr title  "packets dropped by queue, count"
scalar hierarchical.gw[4].wlan[0].mgmt 	dropPkByQueue:sum(packetBytes) 	0
attr interpolationmode  none
attr source  dropPkByQueue
attr title  "packets dropped by queue, sum(packetBytes)"
scalar hierarchical.gw[4].wlan[0].mac 	"number of received packets" 	27637
scalar hierarchical.gw[4].wlan[0].mac 	"number of collisions" 	2743
scalar hierarchical.gw[4].wlan[0].mac 	"number of internal collisions" 	0
scalar hierarchical.gw[4].wlan[0].mac 	"number of retry for AC 0" 	248
scalar hierarchical.gw[4].wlan[0].mac 	"sent and received bits" 	43640128
scalar hierarchical.gw[4].wlan[0].mac 	"sent packet within AC 0" 	27501
scalar hierarchical.gw[4].wlan[0].mac 	"sent in TXOP " 	0
scalar hierarchical.gw[4].wlan[0].mac 	"sentWithoutRetry AC 0" 	27332
scalar hierarchical.gw[4].wlan[0].mac 	"numGivenUp AC 0" 	0
scalar hierarchical.gw[4].wlan[0].mac 	"numDropped AC 0" 	0
scalar hierarchical.gw[4].wlan[0].mac 	rcvdPkFromHL:count 	29446
attr interpolationmode  none
attr source  packetReceivedFromUpper
attr title  "packets received from higher layer, count"
scalar hierarchical.gw[4].wlan[0].mac 	rcvdPkFromHL:sum(packetBytes) 	5455016
attr interpolationmode  none
attr source  packetReceivedFromUpper
attr title  "packets received from higher layer, sum(packetBytes)"
scalar hierarchical.gw[4].wlan[0].mac 	passedUpPk:count 	35818
attr interpolationmode  none
attr source  packetSentToUpper
attr title  "packets passed to higher layer, count"
scalar hierarchical.gw[4].wlan[0].mac 	passedUpPk:sum(packetBytes) 	6182288
attr interpolationmode  none
attr source  packetSentToUpper
attr title  "packets passed to higher layer, sum(packetBytes)"
scalar hierarchical.gw[4].wlan[0].mac 	rcvdPkFromLL:count 	129444
attr interpolationmode  none
attr source  packetReceivedFromLower
attr title  "packets received from lower layer, count"
scalar hierarchical.gw[4].wlan[0].mac 	rcvdPkFromLL:sum(packetBytes) 	13451088
attr interpolationmode  none
attr source  packetReceivedFromLower
attr title  "packets received from lower layer, sum(packetBytes)"
scalar hierarchical.gw[4].wlan[0].mac 	sentDownPk:count 	57331
attr interpolationmode  none
attr source  packetSentToLower
attr title  "packets sent to lower layer, count"
scalar hierarchical.gw[4].wlan[0].mac 	sentDownPk:sum(packetBytes) 	5889054
attr interpolationmode  none
attr source  packetSentToLower
attr title  "packets sent to lower layer, sum(packetBytes)"
scalar hierarchical.gw[4].wlan[0].radio 	lossRate:min 	0
attr interpolationmode  backward-sample-hold
attr title  "packet loss rate, min"
scalar hierarchical.gw[4].wlan[0].radio 	lossRate:max 	0.26
attr interpolationmode  backward-sample-hold
attr title  "packet loss rate, max"
scalar hierarchical.gw[4].wlan[0].radio 	lossRate:timeavg 	0.017765878486552
attr interpolationmode  backward-sample-hold
attr title  "packet loss rate, timeavg"
statistic hierarchical.gw[4].wlan[0].radio 	channelNo:histogram
field count 1
field mean 4
field stddev -nan
field sum 4
field sqrsum 16
field min 4
field max 4
attr interpolationmode  sample-hold
attr title  "channel no, histogram"
bin	-INF	0
bin	3	0
bin	4	1
bin	5	0
scalar hierarchical.gw[4].wlan[0].radio 	bitrate:min 	11000000
attr interpolationmode  sample-hold
attr title  "tx bitrate, min"
attr unit  bps
scalar hierarchical.gw[4].wlan[0].radio 	bitrate:max 	11000000
attr interpolationmode  sample-hold
attr title  "tx bitrate, max"
attr unit  bps
scalar hierarchical.gw[4].wlan[0].radio 	bitrate:timeavg 	11000000
attr interpolationmode  sample-hold
attr title  "tx bitrate, timeavg"
attr unit  bps
scalar hierarchical.gw[4].wlan[0].radio 	radioState:count 	372515
attr interpolationmode  sample-hold
attr title  "radio state (enum), count"
scalar hierarchical.gw[4].wlan[1].mgmt 	dataQueueLen:max 	3
attr interpolationmode  sample-hold
attr title  "data queue length, max"
scalar hierarchical.gw[4].wlan[1].mgmt 	dataQueueLen:timeavg 	0.00089345393666667
attr interpolationmode  sample-hold
attr title  "data queue length, timeavg"
scalar hierarchical.gw[4].wlan[1].mgmt 	dropPkByQueue:count 	0
attr interpolationmode  none
attr source  dropPkByQueue
attr title  "packets dropped by queue, count"
scalar hierarchical.gw[4].wlan[1].mgmt 	dropPkByQueue:sum(packetBytes) 	0
attr interpolationmode  none
attr source  dropPkByQueue
attr title  "packets dropped by queue, sum(packetBytes)"
scalar hierarchical.gw[4].wlan[1].mac 	"number of received packets" 	23804
scalar hierarchical.gw[4].wlan[1].mac 	"number of collisions" 	400
scalar hierarchical.gw[4].wlan[1].mac 	"number of internal collisions" 	0
scalar hierarchical.gw[4].wlan[1].mac 	"number of retry for AC 0" 	10947
scalar hierarchical.gw[4].wlan[1].mac 	"sent and received bits" 	39920616
scalar hierarchical.gw[4].wlan[1].mac 	"sent packet within AC 0" 	23825
scalar hierarchical.gw[4].wlan[1].mac 	"sent in TXOP " 	0
scalar hierarchical.gw[4].wlan[1].mac 	"sentWithoutRetry AC 0" 	19763
scalar hierarchical.gw[4].wlan[1].mac 	"numGivenUp AC 0" 	31
scalar hierarchical.gw[4].wlan[1].mac 	"numDropped AC 0" 	0
scalar hierarchical.gw[4].wlan[1].mac 	rcvdPkFromHL:count 	24506
attr interpolationmode  none
attr source  packetReceivedFromUpper
attr title  "packets received from higher layer, count"
scalar hierarchical.gw[4].wlan[1].mac 	rcvdPkFromHL:sum(packetBytes) 	4996254
attr interpolationmode  none
attr source  packetReceivedFromUpper
attr title  "packets received from higher layer, sum(packetBytes)"
scalar hierarchical.gw[4].wlan[1].mac 	passedUpPk:count 	25072
attr interpolationmode  none
attr source  packetSentToUpper
attr title  "packets passed to higher layer, count"
scalar hierarchical.gw[4].wlan[1].mac 	passedUpPk:sum(packetBytes) 	5057361
attr interpolationmode  none
attr source  packetSentToUpper
attr title  "packets passed to higher layer, sum(packetBytes)"
scalar hierarchical.gw[4].wlan[1].mac 	rcvdPkFromLL:count 	103082
attr interpolationmode  none
attr source  packetReceivedFromLower
attr title  "packets received from lower layer, count"
scalar hierarchical.gw[4].wlan[1].mac 	rcvdPkFromLL:sum(packetBytes) 	11785662
attr interpolationmode  none
attr source  packetReceivedFromLower
attr title  "packets received from lower layer, sum(packetBytes)"
scalar hierarchical.gw[4].wlan[1].mac 	sentDownPk:count 	59256
attr interpolationmode  none
attr source  packetSentToLower
attr title  "packets sent to lower layer, count"
scalar hierarchical.gw[4].wlan[1].mac 	sentDownPk:sum(packetBytes) 	7575319
attr interpolationmode  none
attr source  packetSentToLower
attr title  "packets sent to lower layer, sum(packetBytes)"
scalar hierarchical.gw[4].wlan[1].radio 	lossRate:min 	0
attr interpolationmode  backward-sample-hold
attr title  "packet loss rate, min"
scalar hierarchical.gw[4].wlan[1].radio 	lossRate:max 	0.12
attr interpolationmode  backward-sample-hold
attr title  "packet loss rate, max"
scalar hierarchical.gw[4].wlan[1].radio 	lossRate:timeavg 	0.0037964864334019
attr interpolationmode  backward-sample-hold
attr title  "packet loss rate, timeavg"
statistic hierarchical.gw[4].wlan[1].radio 	channelNo:histogram
field count 1
field mean 5
field stddev -nan
field sum 5
field sqrsum 25
field min 5
field max 5
attr interpolationmode  sample-hold
attr title  "channel no, histogram"
bin	-INF	0
bin	4	0
bin	5	1
bin	6	0
scalar hierarchical.gw[4].wlan[1].radio 	bitrate:min 	11000000
attr interpolationmode  sample-hold
attr title  "tx bitrate, min"
attr unit  bps
scalar hierarchical.gw[4].wlan[1].radio 	bitrate:max 	11000000
attr interpolationmode  sample-hold
attr title  "tx bitrate, max"
attr unit  bps
scalar hierarchical.gw[4].wlan[1].radio 	bitrate:timeavg 	11000000
attr interpolationmode  sample-hold
attr title  "tx bitrate, timeavg"
attr unit  bps
scalar hierarchical.gw[4].wlan[1].radio 	radioState:count 	324790
attr interpolationmode  sample-hold
attr title  "radio state (enum), count"
scalar hierarchical.gw[4].manetrouting 	OLSR_HNA_Messages_(Forwarded) 	0
scalar hierarchical.gw[4].manetrouting 	OLSR_TC_Messages_(Forwarded) 	361
scalar hierarchical.gw[4].manetrouting 	OLSR_Total_HELLO 	515
scalar hierarchical.gw[4].manetrouting 	OLSR_Total_HNA_(originated) 	189
scalar hierarchical.gw[4].manetrouting 	OLSR_Total_TC 	189
scalar hierarchical.gw[4].manetrouting 	OLSR_Total_Messages_Sent 	1254
scalar hierarchical.gw[4].backbonemanetrouting 	OLSR_HNA_Messages_(Forwarded) 	0
scalar hierarchical.gw[4].backbonemanetrouting 	OLSR_TC_Messages_(Forwarded) 	518
scalar hierarchical.gw[4].backbonemanetrouting 	OLSR_Total_HELLO 	513
scalar hierarchical.gw[4].backbonemanetrouting 	OLSR_Total_HNA_(originated) 	0
scalar hierarchical.gw[4].backbonemanetrouting 	OLSR_Total_TC 	0
scalar hierarchical.gw[4].backbonemanetrouting 	OLSR_Total_Messages_Sent 	1031
scalar hierarchical.gw[4].udp 	droppedPkBadChecksum:count 	0
attr interpolationmode  none
attr title  "packets dropped (checksum error), count"
scalar hierarchical.gw[4].udp 	droppedPkWrongPort:count 	0
attr interpolationmode  none
attr title  "packets dropped (wrong port), count"
scalar hierarchical.gw[4].udp 	passedUpPk:count 	915
attr interpolationmode  none
attr title  "packets passed up, count"
scalar hierarchical.gw[4].udp 	rcvdPk:count 	915
attr interpolationmode  none
attr source  rcvdPk
attr title  "packets received, count"
scalar hierarchical.gw[4].udp 	rcvdPk:sum(packetBytes) 	58775
attr interpolationmode  none
attr source  rcvdPk
attr title  "packets received, sum(packetBytes)"
scalar hierarchical.gw[4].udp 	sentPk:count 	953
attr interpolationmode  none
attr source  sentPk
attr title  "packets sent, count"
scalar hierarchical.gw[4].udp 	sentPk:sum(packetBytes) 	60952
attr interpolationmode  none
attr source  sentPk
attr title  "packets sent, sum(packetBytes)"
scalar hierarchical.gw[4].pingApp[0] 	numOutOfOrderArrivals:last 	-nan
attr interpolationmode  none
attr title  "ping out-of-order arrivals, last"
scalar hierarchical.gw[4].pingApp[0] 	pingRxSeq:count 	0
attr interpolationmode  none
attr title  "ping rx seq, count"
scalar hierarchical.gw[4].pingApp[0] 	pingTxSeq:count 	0
attr interpolationmode  none
attr title  "ping tx seq, count"
scalar hierarchical.gw[4].pingApp[0] 	numLost:last 	-nan
attr interpolationmode  none
attr title  "pings lost, last"
statistic hierarchical.gw[4].pingApp[0] 	rtt:histogram
field count 0
field mean -nan
field stddev -nan
field sum 0
field sqrsum 0
field min -nan
field max -nan
attr interpolationmode  none
attr title  "ping round-trip time, histogram"
attr unit  s
bin	-INF	0
bin	-0.5	0
bin	-0.46666666666667	0
bin	-0.43333333333333	0
bin	-0.4	0
bin	-0.36666666666667	0
bin	-0.33333333333333	0
bin	-0.3	0
bin	-0.26666666666667	0
bin	-0.23333333333333	0
bin	-0.2	0
bin	-0.16666666666667	0
bin	-0.13333333333333	0
bin	-0.1	0
bin	-0.066666666666667	0
bin	-0.033333333333333	0
bin	0	0
bin	0.033333333333333	0
bin	0.066666666666667	0
bin	0.1	0
bin	0.13333333333333	0
bin	0.16666666666667	0
bin	0.2	0
bin	0.23333333333333	0
bin	0.26666666666667	0
bin	0.3	0
bin	0.33333333333333	0
bin	0.36666666666667	0
bin	0.4	0
bin	0.43333333333333	0
bin	0.46666666666667	0
bin	0.5	0
scalar hierarchical.gw[4].pingTestApp[0] 	numOutOfOrderArrivals:last 	-nan
attr interpolationmode  none
attr title  "ping out-of-order arrivals, last"
scalar hierarchical.gw[4].pingTestApp[0] 	pingRxSeq:count 	0
attr interpolationmode  none
attr title  "ping rx seq, count"
scalar hierarchical.gw[4].pingTestApp[0] 	pingTxSeq:count 	0
attr interpolationmode  none
attr title  "ping tx seq, count"
scalar hierarchical.gw[4].pingTestApp[0] 	numLost:last 	-nan
attr interpolationmode  none
attr title  "pings lost, last"
statistic hierarchical.gw[4].pingTestApp[0] 	rtt:histogram
field count 0
field mean -nan
field stddev -nan
field sum 0
field sqrsum 0
field min -nan
field max -nan
attr interpolationmode  none
attr title  "ping round-trip time, histogram"
attr unit  s
bin	-INF	0
bin	-0.5	0
bin	-0.46666666666667	0
bin	-0.43333333333333	0
bin	-0.4	0
bin	-0.36666666666667	0
bin	-0.33333333333333	0
bin	-0.3	0
bin	-0.26666666666667	0
bin	-0.23333333333333	0
bin	-0.2	0
bin	-0.16666666666667	0
bin	-0.13333333333333	0
bin	-0.1	0
bin	-0.066666666666667	0
bin	-0.033333333333333	0
bin	0	0
bin	0.033333333333333	0
bin	0.066666666666667	0
bin	0.1	0
bin	0.13333333333333	0
bin	0.16666666666667	0
bin	0.2	0
bin	0.23333333333333	0
bin	0.26666666666667	0
bin	0.3	0
bin	0.33333333333333	0
bin	0.36666666666667	0
bin	0.4	0
bin	0.43333333333333	0
bin	0.46666666666667	0
bin	0.5	0
scalar hierarchical.host[0].networkLayer.arp 	failedARPResolution:count 	0
attr title  "ARP failed resolutions, count"
scalar hierarchical.host[0].networkLayer.arp 	completedARPResolution:count 	23
attr title  "ARP completed resolutions, count"
scalar hierarchical.host[0].networkLayer.arp 	initiatedARPResolution:count 	3
attr title  "ARP initiated resolutions, count"
scalar hierarchical.host[0].networkLayer.arp 	sentReply:count 	7
attr title  "ARP replies sent, count"
scalar hierarchical.host[0].networkLayer.arp 	sentReq:count 	3
attr title  "ARP request sent, count"
scalar hierarchical.host[0].lo0.lo 	droppedPkBitError:count 	0
attr interpolationmode  none
attr source  dropPkBitError
attr title  "packets dropped/bit error, count"
scalar hierarchical.host[0].lo0.lo 	droppedPkBitError:sum(packetBytes) 	0
attr interpolationmode  none
attr source  dropPkBitError
attr title  "packets dropped/bit error, sum(packetBytes)"
scalar hierarchical.host[0].lo0.lo 	rcvdPkFromHL:count 	0
attr interpolationmode  none
attr source  packetReceivedFromUpper
attr title  "packets received from higher layer, count"
scalar hierarchical.host[0].lo0.lo 	rcvdPkFromHL:sum(packetBytes) 	0
attr interpolationmode  none
attr source  packetReceivedFromUpper
attr title  "packets received from higher layer, sum(packetBytes)"
scalar hierarchical.host[0].lo0.lo 	passedUpPk:count 	0
attr interpolationmode  none
attr source  packetSentToUpper
attr title  "packets passed to higher layer, count"
scalar hierarchical.host[0].lo0.lo 	passedUpPk:sum(packetBytes) 	0
attr interpolationmode  none
attr source  packetSentToUpper
attr title  "packets passed to higher layer, sum(packetBytes)"
scalar hierarchical.host[0].wlan[0].mgmt 	dataQueueLen:max 	0
attr interpolationmode  sample-hold
attr title  "data queue length, max"
scalar hierarchical.host[0].wlan[0].mgmt 	dataQueueLen:timeavg 	0
attr interpolationmode  sample-hold
attr title  "data queue length, timeavg"
scalar hierarchical.host[0].wlan[0].mgmt 	dropPkByQueue:count 	0
attr interpolationmode  none
attr source  dropPkByQueue
attr title  "packets dropped by queue, count"
scalar hierarchical.host[0].wlan[0].mgmt 	dropPkByQueue:sum(packetBytes) 	0
attr interpolationmode  none
attr source  dropPkByQueue
attr title  "packets dropped by queue, sum(packetBytes)"
scalar hierarchical.host[0].wlan[0].mac 	"number of received packets" 	4595
scalar hierarchical.host[0].wlan[0].mac 	"number of collisions" 	1537
scalar hierarchical.host[0].wlan[0].mac 	"number of internal collisions" 	0
scalar hierarchical.host[0].wlan[0].mac 	"number of retry for AC 0" 	911
scalar hierarchical.host[0].wlan[0].mac 	"sent and received bits" 	7545152
scalar hierarchical.host[0].wlan[0].mac 	"sent packet within AC 0" 	4603
scalar hierarchical.host[0].wlan[0].mac 	"sent in TXOP " 	0
scalar hierarchical.host[0].wlan[0].mac 	"sentWithoutRetry AC 0" 	4250
scalar hierarchical.host[0].wlan[0].mac 	"numGivenUp AC 0" 	5
scalar hierarchical.host[0].wlan[0].mac 	"numDropped AC 0" 	0
scalar hierarchical.host[0].wlan[0].mac 	rcvdPkFromHL:count 	5255
attr interpolationmode  none
attr source  packetReceivedFromUpper
attr title  "packets received from higher layer, count"
scalar hierarchical.host[0].wlan[0].mac 	rcvdPkFromHL:sum(packetBytes) 	944094
attr interpolationmode  none
attr source  packetReceivedFromUpper
attr title  "packets received from higher layer, sum(packetBytes)"
scalar hierarchical.host[0].wlan[0].mac 	passedUpPk:count 	8508
attr interpolationmode  none
attr source  packetSentToUpper
attr title  "packets passed to higher layer, count"
scalar hierarchical.host[0].wlan[0].mac 	passedUpPk:sum(packetBytes) 	1314744
attr interpolationmode  none
attr source  packetSentToUpper
attr title  "packets passed to higher layer, sum(packetBytes)"
scalar hierarchical.host[0].wlan[0].mac 	rcvdPkFromLL:count 	56541
attr interpolationmode  none
attr source  packetReceivedFromLower
attr title  "packets received from lower layer, count"
scalar hierarchical.host[0].wlan[0].mac 	rcvdPkFromLL:sum(packetBytes) 	6003806
attr interpolationmode  none
attr source  packetReceivedFromLower
attr title  "packets received from lower layer, sum(packetBytes)"
scalar hierarchical.host[0].wlan[0].mac 	sentDownPk:count 	10761
attr interpolationmode  none
attr source  packetSentToLower
attr title  "packets sent to lower layer, count"
scalar hierarchical.host[0].wlan[0].mac 	sentDownPk:sum(packetBytes) 	1181514
attr interpolationmode  none
attr source  packetSentToLower
attr title  "packets sent to lower layer, sum(packetBytes)"
scalar hierarchical.host[0].wlan[0].radio 	lossRate:min 	0
attr interpolationmode  backward-sample-hold
attr title  "packet loss rate, min"
scalar hierarchical.host[0].wlan[0].radio 	lossRate:max 	0.28
attr interpolationmode  backward-sample-hold
attr title  "packet loss rate, max"
scalar hierarchical.host[0].wlan[0].radio 	lossRate:timeavg 	0.021337056720029
attr interpolationmode  backward-sample-hold
attr title  "packet loss rate, timeavg"
statistic hierarchical.host[0].wlan[0].radio 	channelNo:histogram
field count 1
field mean 0
field stddev -nan
field sum 0
field sqrsum 0
field min 0
field max 0
attr interpolationmode  sample-hold
attr title  "channel no, histogram"
bin	-INF	0
bin	-0.5	0
bin	-0.46666666666667	0
bin	-0.43333333333333	0
bin	-0.4	0
bin	-0.36666666666667	0
bin	-0.33333333333333	0
bin	-0.3	0
bin	-0.26666666666667	0
bin	-0.23333333333333	0
bin	-0.2	0
bin	-0.16666666666667	0
bin	-0.13333333333333	0
bin	-0.1	0
bin	-0.066666666666667	0
bin	-0.033333333333333	0
bin	0	1
bin	0.033333333333333	0
bin	0.066666666666667	0
bin	0.1	0
bin	0.13333333333333	0
bin	0.16666666666667	0
bin	0.2	0
bin	0.23333333333333	0
bin	0.26666666666667	0
bin	0.3	0
bin	0.33333333333333	0
bin	0.36666666666667	0
bin	0.4	0
bin	0.43333333333333	0
bin	0.46666666666667	0
bin	0.5	0
scalar hierarchical.host[0].wlan[0].radio 	bitrate:min 	11000000
attr interpolationmode  sample-hold
attr title  "tx bitrate, min"
attr unit  bps
scalar hierarchical.host[0].wlan[0].radio 	bitrate:max 	11000000
attr interpolationmode  sample-hold
attr title  "tx bitrate, max"
attr unit  bps
scalar hierarchical.host[0].wlan[0].radio 	bitrate:timeavg 	11000000
attr interpolationmode  sample-hold
attr title  "tx bitrate, timeavg"
attr unit  bps
scalar hierarchical.host[0].wlan[0].radio 	radioState:count 	135012
attr interpolationmode  sample-hold
attr title  "radio state (enum), count"
scalar hierarchical.host[0].pingApp[0] 	numOutOfOrderArrivals:last 	-nan
attr interpolationmode  none
[...]
scalar hierarchical.host[19].lo0.lo 	rcvdPkFromHL:count 	0
attr interpolationmode  none
attr source  packetReceivedFromUpper
attr title  "packets received from higher layer, count"
scalar hierarchical.host[19].lo0.lo 	rcvdPkFromHL:sum(packetBytes) 	0
attr interpolationmode  none
attr source  packetReceivedFromUpper
attr title  "packets received from higher layer, sum(packetBytes)"
scalar hierarchical.host[19].lo0.lo 	passedUpPk:count 	0
attr interpolationmode  none
attr source  packetSentToUpper
attr title  "packets passed to higher layer, count"
scalar hierarchical.host[19].lo0.lo 	passedUpPk:sum(packetBytes) 	0
attr interpolationmode  none
attr source  packetSentToUpper
attr title  "packets passed to higher layer, sum(packetBytes)"
scalar hierarchical.host[19].wlan[0].mgmt 	dataQueueLen:max 	0
attr interpolationmode  sample-hold
attr title  "data queue length, max"
scalar hierarchical.host[19].wlan[0].mgmt 	dataQueueLen:timeavg 	0
attr interpolationmode  sample-hold
attr title  "data queue length, timeavg"
scalar hierarchical.host[19].wlan[0].mgmt 	dropPkByQueue:count 	0
attr interpolationmode  none
attr source  dropPkByQueue
attr title  "packets dropped by queue, count"
scalar hierarchical.host[19].wlan[0].mgmt 	dropPkByQueue:sum(packetBytes) 	0
attr interpolationmode  none
attr source  dropPkByQueue
attr title  "packets dropped by queue, sum(packetBytes)"
scalar hierarchical.host[19].wlan[0].mac 	"number of received packets" 	5625
scalar hierarchical.host[19].wlan[0].mac 	"number of collisions" 	1704
scalar hierarchical.host[19].wlan[0].mac 	"number of internal collisions" 	0
scalar hierarchical.host[19].wlan[0].mac 	"number of retry for AC 0" 	859
scalar hierarchical.host[19].wlan[0].mac 	"sent and received bits" 	9459680
scalar hierarchical.host[19].wlan[0].mac 	"sent packet within AC 0" 	5683
scalar hierarchical.host[19].wlan[0].mac 	"sent in TXOP " 	0
scalar hierarchical.host[19].wlan[0].mac 	"sentWithoutRetry AC 0" 	5506
scalar hierarchical.host[19].wlan[0].mac 	"numGivenUp AC 0" 	70
scalar hierarchical.host[19].wlan[0].mac 	"numDropped AC 0" 	0
scalar hierarchical.host[19].wlan[0].mac 	rcvdPkFromHL:count 	6648
attr interpolationmode  none
attr source  packetReceivedFromUpper
attr title  "packets received from higher layer, count"
scalar hierarchical.host[19].wlan[0].mac 	rcvdPkFromHL:sum(packetBytes) 	1195760
attr interpolationmode  none
attr source  packetReceivedFromUpper
attr title  "packets received from higher layer, sum(packetBytes)"
scalar hierarchical.host[19].wlan[0].mac 	passedUpPk:count 	11864
attr interpolationmode  none
attr source  packetSentToUpper
attr title  "packets passed to higher layer, count"
scalar hierarchical.host[19].wlan[0].mac 	passedUpPk:sum(packetBytes) 	1804844
attr interpolationmode  none
attr source  packetSentToUpper
attr title  "packets passed to higher layer, sum(packetBytes)"
scalar hierarchical.host[19].wlan[0].mac 	rcvdPkFromLL:count 	125691
attr interpolationmode  none
attr source  packetReceivedFromLower
attr title  "packets received from lower layer, count"
scalar hierarchical.host[19].wlan[0].mac 	rcvdPkFromLL:sum(packetBytes) 	13594810
attr interpolationmode  none
attr source  packetReceivedFromLower
attr title  "packets received from lower layer, sum(packetBytes)"
scalar hierarchical.host[19].wlan[0].mac 	sentDownPk:count 	13132
attr interpolationmode  none
attr source  packetSentToLower
attr title  "packets sent to lower layer, count"
scalar hierarchical.host[19].wlan[0].mac 	sentDownPk:sum(packetBytes) 	1437600
attr interpolationmode  none
attr source  packetSentToLower
attr title  "packets sent to lower layer, sum(packetBytes)"
scalar hierarchical.host[19].wlan[0].radio 	lossRate:min 	0
attr interpolationmode  backward-sample-hold
attr title  "packet loss rate, min"
scalar hierarchical.host[19].wlan[0].radio 	lossRate:max 	0.2
attr interpolationmode  backward-sample-hold
attr title  "packet loss rate, max"
scalar hierarchical.host[19].wlan[0].radio 	lossRate:timeavg 	0.010875313767216
attr interpolationmode  backward-sample-hold
attr title  "packet loss rate, timeavg"
statistic hierarchical.host[19].wlan[0].radio 	channelNo:histogram
field count 1
field mean 4
field stddev -nan
field sum 4
field sqrsum 16
field min 4
field max 4
attr interpolationmode  sample-hold
attr title  "channel no, histogram"
bin	-INF	0
bin	3	0
bin	4	1
bin	5	0
scalar hierarchical.host[19].wlan[0].radio 	bitrate:min 	11000000
attr interpolationmode  sample-hold
attr title  "tx bitrate, min"
attr unit  bps
scalar hierarchical.host[19].wlan[0].radio 	bitrate:max 	11000000
attr interpolationmode  sample-hold
attr title  "tx bitrate, max"
attr unit  bps
scalar hierarchical.host[19].wlan[0].radio 	bitrate:timeavg 	11000000
attr interpolationmode  sample-hold
attr title  "tx bitrate, timeavg"
attr unit  bps
scalar hierarchical.host[19].wlan[0].radio 	radioState:count 	278117
attr interpolationmode  sample-hold
attr title  "radio state (enum), count"
scalar hierarchical.host[19].pingApp[0] 	numOutOfOrderArrivals:last 	-nan
attr interpolationmode  none
attr title  "ping out-of-order arrivals, last"
scalar hierarchical.host[19].pingApp[0] 	pingRxSeq:count 	0
attr interpolationmode  none
attr title  "ping rx seq, count"
scalar hierarchical.host[19].pingApp[0] 	pingTxSeq:count 	0
attr interpolationmode  none
attr title  "ping tx seq, count"
scalar hierarchical.host[19].pingApp[0] 	numLost:last 	-nan
attr interpolationmode  none
attr title  "pings lost, last"
statistic hierarchical.host[19].pingApp[0] 	rtt:histogram
field count 0
field mean -nan
field stddev -nan
field sum 0
field sqrsum 0
field min -nan
field max -nan
attr interpolationmode  none
attr title  "ping round-trip time, histogram"
attr unit  s
bin	-INF	0
bin	-0.5	0
bin	-0.46666666666667	0
bin	-0.43333333333333	0
bin	-0.4	0
bin	-0.36666666666667	0
bin	-0.33333333333333	0
bin	-0.3	0
bin	-0.26666666666667	0
bin	-0.23333333333333	0
bin	-0.2	0
bin	-0.16666666666667	0
bin	-0.13333333333333	0
bin	-0.1	0
bin	-0.066666666666667	0
bin	-0.033333333333333	0
bin	0	0
bin	0.033333333333333	0
bin	0.066666666666667	0
bin	0.1	0
bin	0.13333333333333	0
bin	0.16666666666667	0
bin	0.2	0
bin	0.23333333333333	0
bin	0.26666666666667	0
bin	0.3	0
bin	0.33333333333333	0
bin	0.36666666666667	0
bin	0.4	0
bin	0.43333333333333	0
bin	0.46666666666667	0
bin	0.5	0
scalar hierarchical.host[19].pingTestApp[0] 	"Pings sent" 	2299
scalar hierarchical.host[19].pingTestApp[0] 	"ping loss rate (%)" 	6.8725532840365
scalar hierarchical.host[19].pingTestApp[0] 	"ping out-of-order rate (%)" 	0
scalar hierarchical.host[19].pingTestApp[0] 	numOutOfOrderArrivals:last 	-nan
attr interpolationmode  none
attr title  "ping out-of-order arrivals, last"
scalar hierarchical.host[19].pingTestApp[0] 	pingRxSeq:count 	2141
attr interpolationmode  none
attr title  "ping rx seq, count"
scalar hierarchical.host[19].pingTestApp[0] 	pingTxSeq:count 	2299
attr interpolationmode  none
attr title  "ping tx seq, count"
scalar hierarchical.host[19].pingTestApp[0] 	numLost:last 	158
attr interpolationmode  none
attr title  "pings lost, last"
statistic hierarchical.host[19].pingTestApp[0] 	rtt:histogram
field count 2141
field mean 0.010636414142924
field stddev 0.018791021497346
field sum 22.77256268
field sqrsum 0.99785773403554
field min 0.006890142
field max 0.834968068
attr interpolationmode  none
attr title  "ping round-trip time, histogram"
attr unit  s
bin	-INF	0
bin	-0.009696889	0
bin	-0.0074852104666667	0
bin	-0.0052735319333333	0
bin	-0.0030618534	0
bin	-0.00085017486666667	0
bin	0.0013615036666667	0
bin	0.0035731822	0
bin	0.0057848607333333	1247
bin	0.0079965392666667	287
bin	0.0102082178	144
bin	0.012419896333333	112
bin	0.014631574866667	93
bin	0.0168432534	59
bin	0.019054931933333	61
bin	0.021266610466667	38
bin	0.023478289	29
bin	0.025689967533333	18
bin	0.027901646066667	11
bin	0.0301133246	16
bin	0.032325003133333	7
bin	0.034536681666667	4
bin	0.0367483602	5
bin	0.038960038733333	5
bin	0.041171717266667	0
bin	0.0433833958	2
bin	0.045595074333333	0
bin	0.047806752866667	0
bin	0.0500184314	0
bin	0.052230109933333	1
bin	0.054441788466667	0
bin	0.056653467	2
scalar hierarchical.host[19].manetrouting 	OLSR_HNA_Messages_(Forwarded) 	186
scalar hierarchical.host[19].manetrouting 	OLSR_TC_Messages_(Forwarded) 	728
scalar hierarchical.host[19].manetrouting 	OLSR_Total_HELLO 	519
scalar hierarchical.host[19].manetrouting 	OLSR_Total_HNA_(originated) 	0
scalar hierarchical.host[19].manetrouting 	OLSR_Total_TC 	82
scalar hierarchical.host[19].manetrouting 	OLSR_Total_Messages_Sent 	1515
scalar hierarchical.globalObserver.globalStatistics 	"GlobalStatistics: Simulation Time" 	900
scalar hierarchical.globalObserver.globalStatistics 	"BaseApp (bootstrapList): Received Bytes/s from Overlay.mean" 	0
scalar hierarchical.globalObserver.globalStatistics 	"BaseApp (bootstrapList): Received Bytes/s from UDP.mean" 	0
scalar hierarchical.globalObserver.globalStatistics 	"BaseApp (bootstrapList): Received Messages/s from Overlay.mean" 	0
scalar hierarchical.globalObserver.globalStatistics 	"BaseApp (bootstrapList): Received Messages/s from UDP.mean" 	0
scalar hierarchical.globalObserver.globalStatistics 	"BaseApp (bootstrapList): Sent Bytes/s to Overlay.mean" 	0
scalar hierarchical.globalObserver.globalStatistics 	"BaseApp (bootstrapList): Sent Bytes/s to UDP.mean" 	0
scalar hierarchical.globalObserver.globalStatistics 	"BaseApp (bootstrapList): Sent Messages/s to Overlay.mean" 	0
scalar hierarchical.globalObserver.globalStatistics 	"BaseApp (bootstrapList): Sent Messages/s to UDP.mean" 	0
scalar hierarchical.globalObserver.globalStatistics 	"BaseApp (dht): Received Bytes/s from Overlay.mean" 	18.96375
scalar hierarchical.globalObserver.globalStatistics 	"BaseApp (dht): Received Bytes/s from UDP.mean" 	0
scalar hierarchical.globalObserver.globalStatistics 	"BaseApp (dht): Received Messages/s from Overlay.mean" 	0.286
scalar hierarchical.globalObserver.globalStatistics 	"BaseApp (dht): Received Messages/s from UDP.mean" 	0
scalar hierarchical.globalObserver.globalStatistics 	"BaseApp (dht): Sent Bytes/s to Overlay.mean" 	21.372
scalar hierarchical.globalObserver.globalStatistics 	"BaseApp (dht): Sent Bytes/s to UDP.mean" 	0
scalar hierarchical.globalObserver.globalStatistics 	"BaseApp (dht): Sent Messages/s to Overlay.mean" 	0.32425
scalar hierarchical.globalObserver.globalStatistics 	"BaseApp (dht): Sent Messages/s to UDP.mean" 	0
scalar hierarchical.globalObserver.globalStatistics 	"BaseApp (dht4routing): Received Bytes/s from Overlay.mean" 	0
scalar hierarchical.globalObserver.globalStatistics 	"BaseApp (dht4routing): Received Bytes/s from UDP.mean" 	0
scalar hierarchical.globalObserver.globalStatistics 	"BaseApp (dht4routing): Received Messages/s from Overlay.mean" 	0
scalar hierarchical.globalObserver.globalStatistics 	"BaseApp (dht4routing): Received Messages/s from UDP.mean" 	0
scalar hierarchical.globalObserver.globalStatistics 	"BaseApp (dht4routing): Sent Bytes/s to Overlay.mean" 	0
scalar hierarchical.globalObserver.globalStatistics 	"BaseApp (dht4routing): Sent Bytes/s to UDP.mean" 	0
scalar hierarchical.globalObserver.globalStatistics 	"BaseApp (dht4routing): Sent Messages/s to Overlay.mean" 	0
scalar hierarchical.globalObserver.globalStatistics 	"BaseApp (dht4routing): Sent Messages/s to UDP.mean" 	0
scalar hierarchical.globalObserver.globalStatistics 	"BaseApp (neighborCache): Received Bytes/s from Overlay.mean" 	0
scalar hierarchical.globalObserver.globalStatistics 	"BaseApp (neighborCache): Received Bytes/s from UDP.mean" 	0
scalar hierarchical.globalObserver.globalStatistics 	"BaseApp (neighborCache): Received Messages/s from Overlay.mean" 	0
scalar hierarchical.globalObserver.globalStatistics 	"BaseApp (neighborCache): Received Messages/s from UDP.mean" 	0
scalar hierarchical.globalObserver.globalStatistics 	"BaseApp (neighborCache): Sent Bytes/s to Overlay.mean" 	0
scalar hierarchical.globalObserver.globalStatistics 	"BaseApp (neighborCache): Sent Bytes/s to UDP.mean" 	0
scalar hierarchical.globalObserver.globalStatistics 	"BaseApp (neighborCache): Sent Messages/s to Overlay.mean" 	0
scalar hierarchical.globalObserver.globalStatistics 	"BaseApp (neighborCache): Sent Messages/s to UDP.mean" 	0
scalar hierarchical.globalObserver.globalStatistics 	"BaseApp (tier3): Received Bytes/s from Overlay.mean" 	0
scalar hierarchical.globalObserver.globalStatistics 	"BaseApp (tier3): Received Bytes/s from UDP.mean" 	0
scalar hierarchical.globalObserver.globalStatistics 	"BaseApp (tier3): Received Messages/s from Overlay.mean" 	0
scalar hierarchical.globalObserver.globalStatistics 	"BaseApp (tier3): Received Messages/s from UDP.mean" 	0
scalar hierarchical.globalObserver.globalStatistics 	"BaseApp (tier3): Sent Bytes/s to Overlay.mean" 	0
scalar hierarchical.globalObserver.globalStatistics 	"BaseApp (tier3): Sent Bytes/s to UDP.mean" 	0
scalar hierarchical.globalObserver.globalStatistics 	"BaseApp (tier3): Sent Messages/s to Overlay.mean" 	0
scalar hierarchical.globalObserver.globalStatistics 	"BaseApp (tier3): Sent Messages/s to UDP.mean" 	0
scalar hierarchical.globalObserver.globalStatistics 	"BaseOverlay: Dropped Bytes/s.mean" 	0.4515
scalar hierarchical.globalObserver.globalStatistics 	"BaseOverlay: Dropped Messages/s.mean" 	0.00525
scalar hierarchical.globalObserver.globalStatistics 	"BaseOverlay: Forwarded App Data Bytes/s.mean" 	0
scalar hierarchical.globalObserver.globalStatistics 	"BaseOverlay: Forwarded App Data Messages/s.mean" 	0
scalar hierarchical.globalObserver.globalStatistics 	"BaseOverlay: Forwarded App Lookup Bytes/s.mean" 	0
scalar hierarchical.globalObserver.globalStatistics 	"BaseOverlay: Forwarded App Lookup Messages/s.mean" 	0
scalar hierarchical.globalObserver.globalStatistics 	"BaseOverlay: Forwarded Maintenance Bytes/s.mean" 	0
scalar hierarchical.globalObserver.globalStatistics 	"BaseOverlay: Forwarded Maintenance Messages/s.mean" 	0
scalar hierarchical.globalObserver.globalStatistics 	"BaseOverlay: Forwarded Total Bytes/s.mean" 	0
scalar hierarchical.globalObserver.globalStatistics 	"BaseOverlay: Forwarded Total Messages/s.mean" 	0
scalar hierarchical.globalObserver.globalStatistics 	"BaseOverlay: Join Retries.mean" 	1
scalar hierarchical.globalObserver.globalStatistics 	"BaseOverlay: Measured Session Time.mean" 	900
scalar hierarchical.globalObserver.globalStatistics 	"BaseOverlay: Received App Data Bytes/s.mean" 	18.41675
scalar hierarchical.globalObserver.globalStatistics 	"BaseOverlay: Received App Data Messages/s.mean" 	0.2595
scalar hierarchical.globalObserver.globalStatistics 	"BaseOverlay: Received App Lookup Bytes/s.mean" 	7.31325
scalar hierarchical.globalObserver.globalStatistics 	"BaseOverlay: Received App Lookup Messages/s.mean" 	0.09275
scalar hierarchical.globalObserver.globalStatistics 	"BaseOverlay: Received Maintenance Bytes/s.mean" 	32.6505
scalar hierarchical.globalObserver.globalStatistics 	"BaseOverlay: Received Maintenance Messages/s.mean" 	0.68225
scalar hierarchical.globalObserver.globalStatistics 	"BaseOverlay: Received Total Bytes/s.mean" 	58.3805
scalar hierarchical.globalObserver.globalStatistics 	"BaseOverlay: Received Total Messages/s.mean" 	1.0345
scalar hierarchical.globalObserver.globalStatistics 	"BaseOverlay: Sent App Data Bytes/s.mean" 	19.5435
scalar hierarchical.globalObserver.globalStatistics 	"BaseOverlay: Sent App Data Messages/s.mean" 	0.27125
scalar hierarchical.globalObserver.globalStatistics 	"BaseOverlay: Sent App Lookup Bytes/s.mean" 	7.3575
scalar hierarchical.globalObserver.globalStatistics 	"BaseOverlay: Sent App Lookup Messages/s.mean" 	0.0935
scalar hierarchical.globalObserver.globalStatistics 	"BaseOverlay: Sent FailedNode Bytes/s.mean" 	0
scalar hierarchical.globalObserver.globalStatistics 	"BaseOverlay: Sent FailedNode Messages/s.mean" 	0
scalar hierarchical.globalObserver.globalStatistics 	"BaseOverlay: Sent FailedNodeResponse Bytes/s.mean" 	0
scalar hierarchical.globalObserver.globalStatistics 	"BaseOverlay: Sent FailedNodeResponse Messages/s.mean" 	0
scalar hierarchical.globalObserver.globalStatistics 	"BaseOverlay: Sent FindNode Bytes/s.mean" 	4.4
scalar hierarchical.globalObserver.globalStatistics 	"BaseOverlay: Sent FindNode Messages/s.mean" 	0.08
scalar hierarchical.globalObserver.globalStatistics 	"BaseOverlay: Sent FindNodeResponse Bytes/s.mean" 	6.43825
scalar hierarchical.globalObserver.globalStatistics 	"BaseOverlay: Sent FindNodeResponse Messages/s.mean" 	0.07475
scalar hierarchical.globalObserver.globalStatistics 	"BaseOverlay: Sent Maintenance Bytes/s.mean" 	32.99525
scalar hierarchical.globalObserver.globalStatistics 	"BaseOverlay: Sent Maintenance Messages/s.mean" 	0.68925
scalar hierarchical.globalObserver.globalStatistics 	"BaseOverlay: Sent Ping Bytes/s.mean" 	6.368
scalar hierarchical.globalObserver.globalStatistics 	"BaseOverlay: Sent Ping Messages/s.mean" 	0.199
scalar hierarchical.globalObserver.globalStatistics 	"BaseOverlay: Sent Ping Response Bytes/s.mean" 	6.36
scalar hierarchical.globalObserver.globalStatistics 	"BaseOverlay: Sent Ping Response Messages/s.mean" 	0.19875
scalar hierarchical.globalObserver.globalStatistics 	"BaseOverlay: Sent Total Bytes/s.mean" 	59.89625
scalar hierarchical.globalObserver.globalStatistics 	"BaseOverlay: Sent Total Messages/s.mean" 	1.054
scalar hierarchical.globalObserver.globalStatistics 	"Chord: Sent FIX_FINGERS Bytes/s.mean" 	2.408
scalar hierarchical.globalObserver.globalStatistics 	"Chord: Sent FIX_FINGERS Messages/s.mean" 	0.028
scalar hierarchical.globalObserver.globalStatistics 	"Chord: Sent JOIN Bytes/s.mean" 	0
scalar hierarchical.globalObserver.globalStatistics 	"Chord: Sent JOIN Messages/s.mean" 	0
scalar hierarchical.globalObserver.globalStatistics 	"Chord: Sent NEWSUCCESSORHINT Bytes/s.mean" 	0
scalar hierarchical.globalObserver.globalStatistics 	"Chord: Sent NEWSUCCESSORHINT Messages/s.mean" 	0
scalar hierarchical.globalObserver.globalStatistics 	"Chord: Sent NOTIFY Bytes/s.mean" 	9.8095
scalar hierarchical.globalObserver.globalStatistics 	"Chord: Sent NOTIFY Messages/s.mean" 	0.1005
scalar hierarchical.globalObserver.globalStatistics 	"Chord: Sent STABILIZE Bytes/s.mean" 	4.569
scalar hierarchical.globalObserver.globalStatistics 	"Chord: Sent STABILIZE Messages/s.mean" 	0.10175
scalar hierarchical.globalObserver.globalStatistics 	"DHT4Routing: Failed GET Requests/s.mean" 	0
scalar hierarchical.globalObserver.globalStatistics 	"DHT4Routing: Failed PUT Requests/s.mean" 	0.00025
scalar hierarchical.globalObserver.globalStatistics 	"DHT4Routing: GET Latency (s).mean" 	0.14938421957407
scalar hierarchical.globalObserver.globalStatistics 	"DHT4Routing: GET Success Ratio.mean" 	1
scalar hierarchical.globalObserver.globalStatistics 	"DHT4Routing: PUT Latency (s).mean" 	0.020299345904762
scalar hierarchical.globalObserver.globalStatistics 	"DHT4Routing: Sent GET Messages/s.mean" 	0.027
scalar hierarchical.globalObserver.globalStatistics 	"DHT4Routing: Sent PUT Messages/s.mean" 	0.0055
scalar hierarchical.globalObserver.globalStatistics 	"DHT4Routing: Sent Total Messages/s.mean" 	0.0325
scalar hierarchical.globalObserver.globalStatistics 	"DHT4Routing: Successful GET Requests/s.mean" 	0.02175
scalar hierarchical.globalObserver.globalStatistics 	"DHT4Routing: Successful PUT Requests/s.mean" 	0.00525
scalar hierarchical.globalObserver.globalStatistics 	"DHT: Sent Maintenance Bytes/s.mean" 	0.79025
scalar hierarchical.globalObserver.globalStatistics 	"DHT: Sent Maintenance Messages/s.mean" 	0.00725
scalar hierarchical.globalObserver.globalStatistics 	"DHT: Sent Normal Bytes/s.mean" 	20.58175
scalar hierarchical.globalObserver.globalStatistics 	"DHT: Sent Normal Messages/s.mean" 	0.317
scalar hierarchical.globalObserver.globalStatistics 	"Vector: GlobalDhtTestMap: Number of stored DHT entries.mean" 	19.625
scalar hierarchical.globalObserver.globalStatistics 	"Vector: GlobalNodeList: Number of nodes.mean" 	5
