version 2
run FiveClustersStatic-0-20190410-17:55:02-2258
attr configname FiveClustersStatic
attr datetime 20190410-17:55:02
attr experiment FiveClustersStatic
attr inifile DHT-basedStatic.ini
attr iterationvars ""
attr iterationvars2 $repetition=0
attr measurement ""
attr network p2psipmanet.simulations.RyanStatic.StaticHierarchical
attr processid 2258
attr repetition 0
attr replication #0
attr resultdir results
attr runnumber 0
attr seedset 134558

scalar StaticHierarchical.gw[0].networkLayer.arp 	failedARPResolution:count 	0
attr title  "ARP failed resolutions, count"
scalar StaticHierarchical.gw[0].networkLayer.arp 	completedARPResolution:count 	76
attr title  "ARP completed resolutions, count"
scalar StaticHierarchical.gw[0].networkLayer.arp 	initiatedARPResolution:count 	46
attr title  "ARP initiated resolutions, count"
scalar StaticHierarchical.gw[0].networkLayer.arp 	sentReply:count 	13
attr title  "ARP replies sent, count"
scalar StaticHierarchical.gw[0].networkLayer.arp 	sentReq:count 	47
attr title  "ARP request sent, count"
scalar StaticHierarchical.gw[0].lo0.lo 	droppedPkBitError:count 	0
attr interpolationmode  none
attr source  dropPkBitError
attr title  "packets dropped/bit error, count"
scalar StaticHierarchical.gw[0].lo0.lo 	droppedPkBitError:sum(packetBytes) 	0
attr interpolationmode  none
attr source  dropPkBitError
attr title  "packets dropped/bit error, sum(packetBytes)"
scalar StaticHierarchical.gw[0].lo0.lo 	rcvdPkFromHL:count 	0
attr interpolationmode  none
attr source  packetReceivedFromUpper
attr title  "packets received from higher layer, count"
scalar StaticHierarchical.gw[0].lo0.lo 	rcvdPkFromHL:sum(packetBytes) 	0
attr interpolationmode  none
attr source  packetReceivedFromUpper
attr title  "packets received from higher layer, sum(packetBytes)"
scalar StaticHierarchical.gw[0].lo0.lo 	passedUpPk:count 	0
attr interpolationmode  none
attr source  packetSentToUpper
attr title  "packets passed to higher layer, count"
scalar StaticHierarchical.gw[0].lo0.lo 	passedUpPk:sum(packetBytes) 	0
attr interpolationmode  none
attr source  packetSentToUpper
attr title  "packets passed to higher layer, sum(packetBytes)"
scalar StaticHierarchical.gw[0].wlan[0].mgmt 	dataQueueLen:max 	1
attr interpolationmode  sample-hold
attr title  "data queue length, max"
scalar StaticHierarchical.gw[0].wlan[0].mgmt 	dataQueueLen:timeavg 	6.35892e-06
attr interpolationmode  sample-hold
attr title  "data queue length, timeavg"
scalar StaticHierarchical.gw[0].wlan[0].mgmt 	dropPkByQueue:count 	0
attr interpolationmode  none
attr source  dropPkByQueue
attr title  "packets dropped by queue, count"
scalar StaticHierarchical.gw[0].wlan[0].mgmt 	dropPkByQueue:sum(packetBytes) 	0
attr interpolationmode  none
attr source  dropPkByQueue
attr title  "packets dropped by queue, sum(packetBytes)"
scalar StaticHierarchical.gw[0].wlan[0].mac 	"number of received packets" 	36751
scalar StaticHierarchical.gw[0].wlan[0].mac 	"number of collisions" 	2282
scalar StaticHierarchical.gw[0].wlan[0].mac 	"number of internal collisions" 	0
scalar StaticHierarchical.gw[0].wlan[0].mac 	"number of retry for AC 0" 	108
scalar StaticHierarchical.gw[0].wlan[0].mac 	"sent and received bits" 	55311760
scalar StaticHierarchical.gw[0].wlan[0].mac 	"sent packet within AC 0" 	36379
scalar StaticHierarchical.gw[0].wlan[0].mac 	"sent in TXOP " 	0
scalar StaticHierarchical.gw[0].wlan[0].mac 	"sentWithoutRetry AC 0" 	36302
scalar StaticHierarchical.gw[0].wlan[0].mac 	"numGivenUp AC 0" 	0
scalar StaticHierarchical.gw[0].wlan[0].mac 	"numDropped AC 0" 	0
scalar StaticHierarchical.gw[0].wlan[0].mac 	rcvdPkFromHL:count 	36419
attr interpolationmode  none
attr source  packetReceivedFromUpper
attr title  "packets received from higher layer, count"
scalar StaticHierarchical.gw[0].wlan[0].mac 	rcvdPkFromHL:sum(packetBytes) 	6913970
attr interpolationmode  none
attr source  packetReceivedFromUpper
attr title  "packets received from higher layer, sum(packetBytes)"
scalar StaticHierarchical.gw[0].wlan[0].mac 	passedUpPk:count 	36757
attr interpolationmode  none
attr source  packetSentToUpper
attr title  "packets passed to higher layer, count"
scalar StaticHierarchical.gw[0].wlan[0].mac 	passedUpPk:sum(packetBytes) 	6976150
attr interpolationmode  none
attr source  packetSentToUpper
attr title  "packets passed to higher layer, sum(packetBytes)"
scalar StaticHierarchical.gw[0].wlan[0].mac 	rcvdPkFromLL:count 	111634
attr interpolationmode  none
attr source  packetReceivedFromLower
attr title  "packets received from lower layer, count"
scalar StaticHierarchical.gw[0].wlan[0].mac 	rcvdPkFromLL:sum(packetBytes) 	11566324
attr interpolationmode  none
attr source  packetReceivedFromLower
attr title  "packets received from lower layer, sum(packetBytes)"
scalar StaticHierarchical.gw[0].wlan[0].mac 	sentDownPk:count 	73278
attr interpolationmode  none
attr source  packetSentToLower
attr title  "packets sent to lower layer, count"
scalar StaticHierarchical.gw[0].wlan[0].mac 	sentDownPk:sum(packetBytes) 	7449004
attr interpolationmode  none
attr source  packetSentToLower
attr title  "packets sent to lower layer, sum(packetBytes)"
scalar StaticHierarchical.gw[0].wlan[0].radio 	lossRate:min 	0
attr interpolationmode  backward-sample-hold
attr title  "packet loss rate, min"
scalar StaticHierarchical.gw[0].wlan[0].radio 	lossRate:max 	0.34
attr interpolationmode  backward-sample-hold
attr title  "packet loss rate, max"
scalar StaticHierarchical.gw[0].wlan[0].radio 	lossRate:timeavg 	0.020684031704456
attr interpolationmode  backward-sample-hold
attr title  "packet loss rate, timeavg"
statistic StaticHierarchical.gw[0].wlan[0].radio 	channelNo:histogram
field count 1
field mean 0
field stddev -nan
field sum 0
field sqrsum 0
field min 0
field max 0
attr interpolationmode  sample-hold
attr title  "channel no, histogram"
bin	-INF	0
bin	-0.5	0
bin	-0.46666666666667	0
bin	-0.43333333333333	0
bin	-0.4	0
bin	-0.36666666666667	0
bin	-0.33333333333333	0
bin	-0.3	0
bin	-0.26666666666667	0
bin	-0.23333333333333	0
bin	-0.2	0
bin	-0.16666666666667	0
bin	-0.13333333333333	0
bin	-0.1	0
bin	-0.066666666666667	0
bin	-0.033333333333333	0
bin	0	1
bin	0.033333333333333	0
bin	0.066666666666667	0
bin	0.1	0
bin	0.13333333333333	0
bin	0.16666666666667	0
bin	0.2	0
bin	0.23333333333333	0
bin	0.26666666666667	0
bin	0.3	0
bin	0.33333333333333	0
bin	0.36666666666667	0
bin	0.4	0
bin	0.43333333333333	0
bin	0.46666666666667	0
bin	0.5	0
scalar StaticHierarchical.gw[0].wlan[0].radio 	bitrate:min 	11000000
attr interpolationmode  sample-hold
attr title  "tx bitrate, min"
attr unit  bps
scalar StaticHierarchical.gw[0].wlan[0].radio 	bitrate:max 	11000000
attr interpolationmode  sample-hold
attr title  "tx bitrate, max"
attr unit  bps
scalar StaticHierarchical.gw[0].wlan[0].radio 	bitrate:timeavg 	11000000
attr interpolationmode  sample-hold
attr title  "tx bitrate, timeavg"
attr unit  bps
scalar StaticHierarchical.gw[0].wlan[0].radio 	radioState:count 	369458
attr interpolationmode  sample-hold
attr title  "radio state (enum), count"
scalar StaticHierarchical.gw[0].wlan[1].mgmt 	dataQueueLen:max 	10
attr interpolationmode  sample-hold
attr title  "data queue length, max"
scalar StaticHierarchical.gw[0].wlan[1].mgmt 	dataQueueLen:timeavg 	0.0057634420555556
attr interpolationmode  sample-hold
attr title  "data queue length, timeavg"
scalar StaticHierarchical.gw[0].wlan[1].mgmt 	dropPkByQueue:count 	26
attr interpolationmode  none
attr source  dropPkByQueue
attr title  "packets dropped by queue, count"
scalar StaticHierarchical.gw[0].wlan[1].mgmt 	dropPkByQueue:sum(packetBytes) 	4940
attr interpolationmode  none
attr source  dropPkByQueue
attr title  "packets dropped by queue, sum(packetBytes)"
scalar StaticHierarchical.gw[0].wlan[1].mac 	"number of received packets" 	36491
scalar StaticHierarchical.gw[0].wlan[1].mac 	"number of collisions" 	3078
scalar StaticHierarchical.gw[0].wlan[1].mac 	"number of internal collisions" 	0
scalar StaticHierarchical.gw[0].wlan[1].mac 	"number of retry for AC 0" 	35255
scalar StaticHierarchical.gw[0].wlan[1].mac 	"sent and received bits" 	55078400
scalar StaticHierarchical.gw[0].wlan[1].mac 	"sent packet within AC 0" 	36237
scalar StaticHierarchical.gw[0].wlan[1].mac 	"sent in TXOP " 	0
scalar StaticHierarchical.gw[0].wlan[1].mac 	"sentWithoutRetry AC 0" 	23692
scalar StaticHierarchical.gw[0].wlan[1].mac 	"numGivenUp AC 0" 	436
scalar StaticHierarchical.gw[0].wlan[1].mac 	"numDropped AC 0" 	0
scalar StaticHierarchical.gw[0].wlan[1].mac 	rcvdPkFromHL:count 	36680
attr interpolationmode  none
attr source  packetReceivedFromUpper
attr title  "packets received from higher layer, count"
scalar StaticHierarchical.gw[0].wlan[1].mac 	rcvdPkFromHL:sum(packetBytes) 	6967640
attr interpolationmode  none
attr source  packetReceivedFromUpper
attr title  "packets received from higher layer, sum(packetBytes)"
scalar StaticHierarchical.gw[0].wlan[1].mac 	passedUpPk:count 	36389
attr interpolationmode  none
attr source  packetSentToUpper
attr title  "packets passed to higher layer, count"
scalar StaticHierarchical.gw[0].wlan[1].mac 	passedUpPk:sum(packetBytes) 	6911870
attr interpolationmode  none
attr source  packetSentToUpper
attr title  "packets passed to higher layer, sum(packetBytes)"
scalar StaticHierarchical.gw[0].wlan[1].mac 	rcvdPkFromLL:count 	211568
attr interpolationmode  none
attr source  packetReceivedFromLower
attr title  "packets received from lower layer, count"
scalar StaticHierarchical.gw[0].wlan[1].mac 	rcvdPkFromLL:sum(packetBytes) 	24202240
attr interpolationmode  none
attr source  packetReceivedFromLower
attr title  "packets received from lower layer, sum(packetBytes)"
scalar StaticHierarchical.gw[0].wlan[1].mac 	sentDownPk:count 	108426
attr interpolationmode  none
attr source  packetSentToLower
attr title  "packets sent to lower layer, count"
scalar StaticHierarchical.gw[0].wlan[1].mac 	sentDownPk:sum(packetBytes) 	14176004
attr interpolationmode  none
attr source  packetSentToLower
attr title  "packets sent to lower layer, sum(packetBytes)"
scalar StaticHierarchical.gw[0].wlan[1].radio 	lossRate:min 	0
attr interpolationmode  backward-sample-hold
attr title  "packet loss rate, min"
scalar StaticHierarchical.gw[0].wlan[1].radio 	lossRate:max 	0.14
attr interpolationmode  backward-sample-hold
attr title  "packet loss rate, max"
scalar StaticHierarchical.gw[0].wlan[1].radio 	lossRate:timeavg 	0.014844179241536
attr interpolationmode  backward-sample-hold
attr title  "packet loss rate, timeavg"
statistic StaticHierarchical.gw[0].wlan[1].radio 	channelNo:histogram
field count 1
field mean 5
field stddev -nan
field sum 5
field sqrsum 25
field min 5
field max 5
attr interpolationmode  sample-hold
attr title  "channel no, histogram"
bin	-INF	0
bin	4	0
bin	5	1
bin	6	0
scalar StaticHierarchical.gw[0].wlan[1].radio 	bitrate:min 	11000000
attr interpolationmode  sample-hold
attr title  "tx bitrate, min"
attr unit  bps
scalar StaticHierarchical.gw[0].wlan[1].radio 	bitrate:max 	11000000
attr interpolationmode  sample-hold
attr title  "tx bitrate, max"
attr unit  bps
scalar StaticHierarchical.gw[0].wlan[1].radio 	bitrate:timeavg 	11000000
attr interpolationmode  sample-hold
attr title  "tx bitrate, timeavg"
attr unit  bps
scalar StaticHierarchical.gw[0].wlan[1].radio 	radioState:count 	641452
attr interpolationmode  sample-hold
attr title  "radio state (enum), count"
scalar StaticHierarchical.gw[0].udp 	droppedPkBadChecksum:count 	0
attr interpolationmode  none
attr title  "packets dropped (checksum error), count"
scalar StaticHierarchical.gw[0].udp 	droppedPkWrongPort:count 	0
attr interpolationmode  none
attr title  "packets dropped (wrong port), count"
scalar StaticHierarchical.gw[0].udp 	passedUpPk:count 	0
attr interpolationmode  none
attr title  "packets passed up, count"
scalar StaticHierarchical.gw[0].udp 	rcvdPk:count 	0
attr interpolationmode  none
attr source  rcvdPk
attr title  "packets received, count"
scalar StaticHierarchical.gw[0].udp 	rcvdPk:sum(packetBytes) 	0
attr interpolationmode  none
attr source  rcvdPk
attr title  "packets received, sum(packetBytes)"
scalar StaticHierarchical.gw[0].udp 	sentPk:count 	0
attr interpolationmode  none
attr source  sentPk
attr title  "packets sent, count"
scalar StaticHierarchical.gw[0].udp 	sentPk:sum(packetBytes) 	0
attr interpolationmode  none
attr source  sentPk
attr title  "packets sent, sum(packetBytes)"
scalar StaticHierarchical.gw[0].pingApp[0] 	numOutOfOrderArrivals:last 	-nan
attr interpolationmode  none
attr title  "ping out-of-order arrivals, last"
scalar StaticHierarchical.gw[0].pingApp[0] 	pingRxSeq:count 	0
attr interpolationmode  none
attr title  "ping rx seq, count"
scalar StaticHierarchical.gw[0].pingApp[0] 	pingTxSeq:count 	0
attr interpolationmode  none
attr title  "ping tx seq, count"
scalar StaticHierarchical.gw[0].pingApp[0] 	numLost:last 	-nan
attr interpolationmode  none
attr title  "pings lost, last"
statistic StaticHierarchical.gw[0].pingApp[0] 	rtt:histogram
field count 0
field mean -nan
field stddev -nan
field sum 0
field sqrsum 0
field min -nan
field max -nan
attr interpolationmode  none
attr title  "ping round-trip time, histogram"
attr unit  s
bin	-INF	0
bin	-0.5	0
bin	-0.46666666666667	0
bin	-0.43333333333333	0
bin	-0.4	0
bin	-0.36666666666667	0
bin	-0.33333333333333	0
bin	-0.3	0
bin	-0.26666666666667	0
bin	-0.23333333333333	0
bin	-0.2	0
bin	-0.16666666666667	0
bin	-0.13333333333333	0
bin	-0.1	0
bin	-0.066666666666667	0
bin	-0.033333333333333	0
bin	0	0
bin	0.033333333333333	0
bin	0.066666666666667	0
bin	0.1	0
bin	0.13333333333333	0
bin	0.16666666666667	0
bin	0.2	0
bin	0.23333333333333	0
bin	0.26666666666667	0
bin	0.3	0
bin	0.33333333333333	0
bin	0.36666666666667	0
bin	0.4	0
bin	0.43333333333333	0
bin	0.46666666666667	0
bin	0.5	0
scalar StaticHierarchical.gw[0].pingTestApp[0] 	numOutOfOrderArrivals:last 	-nan
attr interpolationmode  none
attr title  "ping out-of-order arrivals, last"
scalar StaticHierarchical.gw[0].pingTestApp[0] 	pingRxSeq:count 	0
attr interpolationmode  none
attr title  "ping rx seq, count"
scalar StaticHierarchical.gw[0].pingTestApp[0] 	pingTxSeq:count 	0
attr interpolationmode  none
attr title  "ping tx seq, count"
scalar StaticHierarchical.gw[0].pingTestApp[0] 	numLost:last 	-nan
attr interpolationmode  none
attr title  "pings lost, last"
statistic StaticHierarchical.gw[0].pingTestApp[0] 	rtt:histogram
field count 0
field mean -nan
field stddev -nan
field sum 0
field sqrsum 0
field min -nan
field max -nan
attr interpolationmode  none
attr title  "ping round-trip time, histogram"
attr unit  s
bin	-INF	0
bin	-0.5	0
bin	-0.46666666666667	0
bin	-0.43333333333333	0
bin	-0.4	0
bin	-0.36666666666667	0
bin	-0.33333333333333	0
bin	-0.3	0
bin	-0.26666666666667	0
bin	-0.23333333333333	0
bin	-0.2	0
bin	-0.16666666666667	0
bin	-0.13333333333333	0
bin	-0.1	0
bin	-0.066666666666667	0
bin	-0.033333333333333	0
bin	0	0
bin	0.033333333333333	0
bin	0.066666666666667	0
bin	0.1	0
bin	0.13333333333333	0
bin	0.16666666666667	0
bin	0.2	0
bin	0.23333333333333	0
bin	0.26666666666667	0
bin	0.3	0
bin	0.33333333333333	0
bin	0.36666666666667	0
bin	0.4	0
bin	0.43333333333333	0
bin	0.46666666666667	0
bin	0.5	0
scalar StaticHierarchical.gw[1].networkLayer.arp 	failedARPResolution:count 	0
attr title  "ARP failed resolutions, count"
scalar StaticHierarchical.gw[1].networkLayer.arp 	completedARPResolution:count 	96
attr title  "ARP completed resolutions, count"
scalar StaticHierarchical.gw[1].networkLayer.arp 	initiatedARPResolution:count 	52
attr title  "ARP initiated resolutions, count"
scalar StaticHierarchical.gw[1].networkLayer.arp 	sentReply:count 	28
attr title  "ARP replies sent, count"
scalar StaticHierarchical.gw[1].networkLayer.arp 	sentReq:count 	52
attr title  "ARP request sent, count"
scalar StaticHierarchical.gw[1].lo0.lo 	droppedPkBitError:count 	0
attr interpolationmode  none
attr source  dropPkBitError
attr title  "packets dropped/bit error, count"
scalar StaticHierarchical.gw[1].lo0.lo 	droppedPkBitError:sum(packetBytes) 	0
attr interpolationmode  none
attr source  dropPkBitError
attr title  "packets dropped/bit error, sum(packetBytes)"
scalar StaticHierarchical.gw[1].lo0.lo 	rcvdPkFromHL:count 	0
attr interpolationmode  none
attr source  packetReceivedFromUpper
attr title  "packets received from higher layer, count"
scalar StaticHierarchical.gw[1].lo0.lo 	rcvdPkFromHL:sum(packetBytes) 	0
attr interpolationmode  none
attr source  packetReceivedFromUpper
attr title  "packets received from higher layer, sum(packetBytes)"
scalar StaticHierarchical.gw[1].lo0.lo 	passedUpPk:count 	0
attr interpolationmode  none
attr source  packetSentToUpper
attr title  "packets passed to higher layer, count"
scalar StaticHierarchical.gw[1].lo0.lo 	passedUpPk:sum(packetBytes) 	0
attr interpolationmode  none
attr source  packetSentToUpper
attr title  "packets passed to higher layer, sum(packetBytes)"
scalar StaticHierarchical.gw[1].wlan[0].mgmt 	dataQueueLen:max 	4
attr interpolationmode  sample-hold
attr title  "data queue length, max"
scalar StaticHierarchical.gw[1].wlan[0].mgmt 	dataQueueLen:timeavg 	2.1606793333333e-05
attr interpolationmode  sample-hold
attr title  "data queue length, timeavg"
scalar StaticHierarchical.gw[1].wlan[0].mgmt 	dropPkByQueue:count 	0
attr interpolationmode  none
attr source  dropPkByQueue
attr title  "packets dropped by queue, count"
scalar StaticHierarchical.gw[1].wlan[0].mgmt 	dropPkByQueue:sum(packetBytes) 	0
attr interpolationmode  none
attr source  dropPkByQueue
attr title  "packets dropped by queue, sum(packetBytes)"
scalar StaticHierarchical.gw[1].wlan[0].mac 	"number of received packets" 	36701
scalar StaticHierarchical.gw[1].wlan[0].mac 	"number of collisions" 	1167
scalar StaticHierarchical.gw[1].wlan[0].mac 	"number of internal collisions" 	0
scalar StaticHierarchical.gw[1].wlan[0].mac 	"number of retry for AC 0" 	7
scalar StaticHierarchical.gw[1].wlan[0].mac 	"sent and received bits" 	55421120
scalar StaticHierarchical.gw[1].wlan[0].mac 	"sent packet within AC 0" 	36456
scalar StaticHierarchical.gw[1].wlan[0].mac 	"sent in TXOP " 	0
scalar StaticHierarchical.gw[1].wlan[0].mac 	"sentWithoutRetry AC 0" 	36449
scalar StaticHierarchical.gw[1].wlan[0].mac 	"numGivenUp AC 0" 	0
scalar StaticHierarchical.gw[1].wlan[0].mac 	"numDropped AC 0" 	0
scalar StaticHierarchical.gw[1].wlan[0].mac 	rcvdPkFromHL:count 	36496
attr interpolationmode  none
attr source  packetReceivedFromUpper
attr title  "packets received from higher layer, count"
scalar StaticHierarchical.gw[1].wlan[0].mac 	rcvdPkFromHL:sum(packetBytes) 	6927640
attr interpolationmode  none
attr source  packetReceivedFromUpper
attr title  "packets received from higher layer, sum(packetBytes)"
scalar StaticHierarchical.gw[1].wlan[0].mac 	passedUpPk:count 	36725
attr interpolationmode  none
attr source  packetSentToUpper
attr title  "packets passed to higher layer, count"
scalar StaticHierarchical.gw[1].wlan[0].mac 	passedUpPk:sum(packetBytes) 	6969710
attr interpolationmode  none
attr source  packetSentToUpper
attr title  "packets passed to higher layer, sum(packetBytes)"
scalar StaticHierarchical.gw[1].wlan[0].mac 	rcvdPkFromLL:count 	92746
attr interpolationmode  none
attr source  packetReceivedFromLower
attr title  "packets received from lower layer, count"
scalar StaticHierarchical.gw[1].wlan[0].mac 	rcvdPkFromLL:sum(packetBytes) 	9572980
attr interpolationmode  none
attr source  packetReceivedFromLower
attr title  "packets received from lower layer, sum(packetBytes)"
scalar StaticHierarchical.gw[1].wlan[0].mac 	sentDownPk:count 	73204
attr interpolationmode  none
attr source  packetSentToLower
attr title  "packets sent to lower layer, count"
scalar StaticHierarchical.gw[1].wlan[0].mac 	sentDownPk:sum(packetBytes) 	7442784
attr interpolationmode  none
attr source  packetSentToLower
attr title  "packets sent to lower layer, sum(packetBytes)"
scalar StaticHierarchical.gw[1].wlan[0].radio 	lossRate:min 	0
attr interpolationmode  backward-sample-hold
attr title  "packet loss rate, min"
scalar StaticHierarchical.gw[1].wlan[0].radio 	lossRate:max 	0.24
attr interpolationmode  backward-sample-hold
attr title  "packet loss rate, max"
scalar StaticHierarchical.gw[1].wlan[0].radio 	lossRate:timeavg 	0.012557500676154
attr interpolationmode  backward-sample-hold
attr title  "packet loss rate, timeavg"
statistic StaticHierarchical.gw[1].wlan[0].radio 	channelNo:histogram
field count 1
field mean 1
field stddev -nan
field sum 1
field sqrsum 1
field min 1
field max 1
attr interpolationmode  sample-hold
attr title  "channel no, histogram"
bin	-INF	0
bin	0	0
bin	1	1
bin	2	0
scalar StaticHierarchical.gw[1].wlan[0].radio 	bitrate:min 	11000000
attr interpolationmode  sample-hold
attr title  "tx bitrate, min"
attr unit  bps
scalar StaticHierarchical.gw[1].wlan[0].radio 	bitrate:max 	11000000
attr interpolationmode  sample-hold
attr title  "tx bitrate, max"
attr unit  bps
scalar StaticHierarchical.gw[1].wlan[0].radio 	bitrate:timeavg 	11000000
attr interpolationmode  sample-hold
attr title  "tx bitrate, timeavg"
attr unit  bps
scalar StaticHierarchical.gw[1].wlan[0].radio 	radioState:count 	331873
attr interpolationmode  sample-hold
attr title  "radio state (enum), count"
scalar StaticHierarchical.gw[1].wlan[1].mgmt 	dataQueueLen:max 	9
attr interpolationmode  sample-hold
attr title  "data queue length, max"
scalar StaticHierarchical.gw[1].wlan[1].mgmt 	dataQueueLen:timeavg 	0.017590807194444
attr interpolationmode  sample-hold
attr title  "data queue length, timeavg"
scalar StaticHierarchical.gw[1].wlan[1].mgmt 	dropPkByQueue:count 	0
attr interpolationmode  none
attr source  dropPkByQueue
attr title  "packets dropped by queue, count"
scalar StaticHierarchical.gw[1].wlan[1].mgmt 	dropPkByQueue:sum(packetBytes) 	0
attr interpolationmode  none
attr source  dropPkByQueue
attr title  "packets dropped by queue, sum(packetBytes)"
scalar StaticHierarchical.gw[1].wlan[1].mac 	"number of received packets" 	90962
scalar StaticHierarchical.gw[1].wlan[1].mac 	"number of collisions" 	39158
scalar StaticHierarchical.gw[1].wlan[1].mac 	"number of internal collisions" 	0
scalar StaticHierarchical.gw[1].wlan[1].mac 	"number of retry for AC 0" 	29815
scalar StaticHierarchical.gw[1].wlan[1].mac 	"sent and received bits" 	138207280
scalar StaticHierarchical.gw[1].wlan[1].mac 	"sent packet within AC 0" 	90929
scalar StaticHierarchical.gw[1].wlan[1].mac 	"sent in TXOP " 	0
scalar StaticHierarchical.gw[1].wlan[1].mac 	"sentWithoutRetry AC 0" 	77988
scalar StaticHierarchical.gw[1].wlan[1].mac 	"numGivenUp AC 0" 	104
scalar StaticHierarchical.gw[1].wlan[1].mac 	"numDropped AC 0" 	0
scalar StaticHierarchical.gw[1].wlan[1].mac 	rcvdPkFromHL:count 	91045
attr interpolationmode  none
attr source  packetReceivedFromUpper
attr title  "packets received from higher layer, count"
scalar StaticHierarchical.gw[1].wlan[1].mac 	rcvdPkFromHL:sum(packetBytes) 	17295550
attr interpolationmode  none
attr source  packetReceivedFromUpper
attr title  "packets received from higher layer, sum(packetBytes)"
scalar StaticHierarchical.gw[1].wlan[1].mac 	passedUpPk:count 	90832
attr interpolationmode  none
attr source  packetSentToUpper
attr title  "packets passed to higher layer, count"
scalar StaticHierarchical.gw[1].wlan[1].mac 	passedUpPk:sum(packetBytes) 	17254600
attr interpolationmode  none
attr source  packetSentToUpper
attr title  "packets passed to higher layer, sum(packetBytes)"
scalar StaticHierarchical.gw[1].wlan[1].mac 	rcvdPkFromLL:count 	329441
attr interpolationmode  none
attr source  packetReceivedFromLower
attr title  "packets received from lower layer, count"
scalar StaticHierarchical.gw[1].wlan[1].mac 	rcvdPkFromLL:sum(packetBytes) 	37014638
attr interpolationmode  none
attr source  packetReceivedFromLower
attr title  "packets received from lower layer, sum(packetBytes)"
scalar StaticHierarchical.gw[1].wlan[1].mac 	sentDownPk:count 	211822
attr interpolationmode  none
attr source  packetSentToLower
attr title  "packets sent to lower layer, count"
scalar StaticHierarchical.gw[1].wlan[1].mac 	sentDownPk:sum(packetBytes) 	24232428
attr interpolationmode  none
attr source  packetSentToLower
attr title  "packets sent to lower layer, sum(packetBytes)"
scalar StaticHierarchical.gw[1].wlan[1].radio 	lossRate:min 	0
attr interpolationmode  backward-sample-hold
attr title  "packet loss rate, min"
scalar StaticHierarchical.gw[1].wlan[1].radio 	lossRate:max 	0.5
attr interpolationmode  backward-sample-hold
attr title  "packet loss rate, max"
scalar StaticHierarchical.gw[1].wlan[1].radio 	lossRate:timeavg 	0.12210953267666
attr interpolationmode  backward-sample-hold
attr title  "packet loss rate, timeavg"
statistic StaticHierarchical.gw[1].wlan[1].radio 	channelNo:histogram
field count 1
field mean 5
field stddev -nan
field sum 5
field sqrsum 25
field min 5
field max 5
attr interpolationmode  sample-hold
attr title  "channel no, histogram"
bin	-INF	0
bin	4	0
bin	5	1
bin	6	0
scalar StaticHierarchical.gw[1].wlan[1].radio 	bitrate:min 	11000000
attr interpolationmode  sample-hold
attr title  "tx bitrate, min"
attr unit  bps
scalar StaticHierarchical.gw[1].wlan[1].radio 	bitrate:max 	11000000
attr interpolationmode  sample-hold
attr title  "tx bitrate, max"
attr unit  bps
scalar StaticHierarchical.gw[1].wlan[1].radio 	bitrate:timeavg 	11000000
attr interpolationmode  sample-hold
attr title  "tx bitrate, timeavg"
attr unit  bps
scalar StaticHierarchical.gw[1].wlan[1].radio 	radioState:count 	1080480
attr interpolationmode  sample-hold
attr title  "radio state (enum), count"
scalar StaticHierarchical.gw[1].udp 	droppedPkBadChecksum:count 	0
attr interpolationmode  none
attr title  "packets dropped (checksum error), count"
scalar StaticHierarchical.gw[1].udp 	droppedPkWrongPort:count 	0
attr interpolationmode  none
attr title  "packets dropped (wrong port), count"
scalar StaticHierarchical.gw[1].udp 	passedUpPk:count 	0
attr interpolationmode  none
attr title  "packets passed up, count"
scalar StaticHierarchical.gw[1].udp 	rcvdPk:count 	0
attr interpolationmode  none
attr source  rcvdPk
attr title  "packets received, count"
scalar StaticHierarchical.gw[1].udp 	rcvdPk:sum(packetBytes) 	0
attr interpolationmode  none
attr source  rcvdPk
attr title  "packets received, sum(packetBytes)"
scalar StaticHierarchical.gw[1].udp 	sentPk:count 	0
attr interpolationmode  none
attr source  sentPk
attr title  "packets sent, count"
scalar StaticHierarchical.gw[1].udp 	sentPk:sum(packetBytes) 	0
attr interpolationmode  none
attr source  sentPk
attr title  "packets sent, sum(packetBytes)"
scalar StaticHierarchical.gw[1].pingApp[0] 	numOutOfOrderArrivals:last 	-nan
attr interpolationmode  none
attr title  "ping out-of-order arrivals, last"
scalar StaticHierarchical.gw[1].pingApp[0] 	pingRxSeq:count 	0
attr interpolationmode  none
attr title  "ping rx seq, count"
scalar StaticHierarchical.gw[1].pingApp[0] 	pingTxSeq:count 	0
attr interpolationmode  none
attr title  "ping tx seq, count"
scalar StaticHierarchical.gw[1].pingApp[0] 	numLost:last 	-nan
attr interpolationmode  none
attr title  "pings lost, last"
statistic StaticHierarchical.gw[1].pingApp[0] 	rtt:histogram
field count 0
field mean -nan
field stddev -nan
field sum 0
field sqrsum 0
field min -nan
field max -nan
attr interpolationmode  none
attr title  "ping round-trip time, histogram"
attr unit  s
bin	-INF	0
bin	-0.5	0
bin	-0.46666666666667	0
bin	-0.43333333333333	0
bin	-0.4	0
bin	-0.36666666666667	0
bin	-0.33333333333333	0
bin	-0.3	0
bin	-0.26666666666667	0
bin	-0.23333333333333	0
bin	-0.2	0
bin	-0.16666666666667	0
bin	-0.13333333333333	0
bin	-0.1	0
bin	-0.066666666666667	0
bin	-0.033333333333333	0
bin	0	0
bin	0.033333333333333	0
bin	0.066666666666667	0
bin	0.1	0
bin	0.13333333333333	0
bin	0.16666666666667	0
bin	0.2	0
bin	0.23333333333333	0
bin	0.26666666666667	0
bin	0.3	0
bin	0.33333333333333	0
bin	0.36666666666667	0
bin	0.4	0
bin	0.43333333333333	0
bin	0.46666666666667	0
bin	0.5	0
scalar StaticHierarchical.gw[1].pingTestApp[0] 	numOutOfOrderArrivals:last 	-nan
attr interpolationmode  none
attr title  "ping out-of-order arrivals, last"
scalar StaticHierarchical.gw[1].pingTestApp[0] 	pingRxSeq:count 	0
attr interpolationmode  none
attr title  "ping rx seq, count"
scalar StaticHierarchical.gw[1].pingTestApp[0] 	pingTxSeq:count 	0
attr interpolationmode  none
attr title  "ping tx seq, count"
scalar StaticHierarchical.gw[1].pingTestApp[0] 	numLost:last 	-nan
attr interpolationmode  none
attr title  "pings lost, last"
statistic StaticHierarchical.gw[1].pingTestApp[0] 	rtt:histogram
field count 0
field mean -nan
field stddev -nan
field sum 0
field sqrsum 0
field min -nan
field max -nan
attr interpolationmode  none
attr title  "ping round-trip time, histogram"
attr unit  s
bin	-INF	0
bin	-0.5	0
bin	-0.46666666666667	0
bin	-0.43333333333333	0
bin	-0.4	0
bin	-0.36666666666667	0
bin	-0.33333333333333	0
bin	-0.3	0
bin	-0.26666666666667	0
bin	-0.23333333333333	0
bin	-0.2	0
bin	-0.16666666666667	0
bin	-0.13333333333333	0
bin	-0.1	0
bin	-0.066666666666667	0
bin	-0.033333333333333	0
bin	0	0
bin	0.033333333333333	0
bin	0.066666666666667	0
bin	0.1	0
bin	0.13333333333333	0
bin	0.16666666666667	0
bin	0.2	0
bin	0.23333333333333	0
bin	0.26666666666667	0
bin	0.3	0
bin	0.33333333333333	0
bin	0.36666666666667	0
bin	0.4	0
bin	0.43333333333333	0
bin	0.46666666666667	0
bin	0.5	0
scalar StaticHierarchical.gw[2].networkLayer.arp 	failedARPResolution:count 	0
attr title  "ARP failed resolutions, count"
scalar StaticHierarchical.gw[2].networkLayer.arp 	completedARPResolution:count 	90
attr title  "ARP completed resolutions, count"
scalar StaticHierarchical.gw[2].networkLayer.arp 	initiatedARPResolution:count 	59
attr title  "ARP initiated resolutions, count"
scalar StaticHierarchical.gw[2].networkLayer.arp 	sentReply:count 	16
attr title  "ARP replies sent, count"
scalar StaticHierarchical.gw[2].networkLayer.arp 	sentReq:count 	60
attr title  "ARP request sent, count"
scalar StaticHierarchical.gw[2].lo0.lo 	droppedPkBitError:count 	0
attr interpolationmode  none
attr source  dropPkBitError
attr title  "packets dropped/bit error, count"
scalar StaticHierarchical.gw[2].lo0.lo 	droppedPkBitError:sum(packetBytes) 	0
attr interpolationmode  none
attr source  dropPkBitError
attr title  "packets dropped/bit error, sum(packetBytes)"
scalar StaticHierarchical.gw[2].lo0.lo 	rcvdPkFromHL:count 	0
attr interpolationmode  none
attr source  packetReceivedFromUpper
attr title  "packets received from higher layer, count"
scalar StaticHierarchical.gw[2].lo0.lo 	rcvdPkFromHL:sum(packetBytes) 	0
attr interpolationmode  none
attr source  packetReceivedFromUpper
attr title  "packets received from higher layer, sum(packetBytes)"
scalar StaticHierarchical.gw[2].lo0.lo 	passedUpPk:count 	0
attr interpolationmode  none
attr source  packetSentToUpper
attr title  "packets passed to higher layer, count"
scalar StaticHierarchical.gw[2].lo0.lo 	passedUpPk:sum(packetBytes) 	0
attr interpolationmode  none
attr source  packetSentToUpper
attr title  "packets passed to higher layer, sum(packetBytes)"
scalar StaticHierarchical.gw[2].wlan[0].mgmt 	dataQueueLen:max 	1
attr interpolationmode  sample-hold
attr title  "data queue length, max"
scalar StaticHierarchical.gw[2].wlan[0].mgmt 	dataQueueLen:timeavg 	1.2915366666667e-05
attr interpolationmode  sample-hold
attr title  "data queue length, timeavg"
scalar StaticHierarchical.gw[2].wlan[0].mgmt 	dropPkByQueue:count 	0
attr interpolationmode  none
attr source  dropPkByQueue
attr title  "packets dropped by queue, count"
scalar StaticHierarchical.gw[2].wlan[0].mgmt 	dropPkByQueue:sum(packetBytes) 	0
attr interpolationmode  none
attr source  dropPkByQueue
attr title  "packets dropped by queue, sum(packetBytes)"
scalar StaticHierarchical.gw[2].wlan[0].mac 	"number of received packets" 	41289
scalar StaticHierarchical.gw[2].wlan[0].mac 	"number of collisions" 	1959
scalar StaticHierarchical.gw[2].wlan[0].mac 	"number of internal collisions" 	0
scalar StaticHierarchical.gw[2].wlan[0].mac 	"number of retry for AC 0" 	155
scalar StaticHierarchical.gw[2].wlan[0].mac 	"sent and received bits" 	62448880
scalar StaticHierarchical.gw[2].wlan[0].mac 	"sent packet within AC 0" 	41070
scalar StaticHierarchical.gw[2].wlan[0].mac 	"sent in TXOP " 	0
scalar StaticHierarchical.gw[2].wlan[0].mac 	"sentWithoutRetry AC 0" 	40963
scalar StaticHierarchical.gw[2].wlan[0].mac 	"numGivenUp AC 0" 	0
scalar StaticHierarchical.gw[2].wlan[0].mac 	"numDropped AC 0" 	0
scalar StaticHierarchical.gw[2].wlan[0].mac 	rcvdPkFromHL:count 	41117
attr interpolationmode  none
attr source  packetReceivedFromUpper
attr title  "packets received from higher layer, count"
scalar StaticHierarchical.gw[2].wlan[0].mac 	rcvdPkFromHL:sum(packetBytes) 	7806110
attr interpolationmode  none
attr source  packetReceivedFromUpper
attr title  "packets received from higher layer, sum(packetBytes)"
scalar StaticHierarchical.gw[2].wlan[0].mac 	passedUpPk:count 	41294
attr interpolationmode  none
attr source  packetSentToUpper
attr title  "packets passed to higher layer, count"
scalar StaticHierarchical.gw[2].wlan[0].mac 	passedUpPk:sum(packetBytes) 	7838300
attr interpolationmode  none
attr source  packetSentToUpper
attr title  "packets passed to higher layer, sum(packetBytes)"
scalar StaticHierarchical.gw[2].wlan[0].mac 	rcvdPkFromLL:count 	111753
attr interpolationmode  none
attr source  packetReceivedFromLower
attr title  "packets received from lower layer, count"
scalar StaticHierarchical.gw[2].wlan[0].mac 	rcvdPkFromLL:sum(packetBytes) 	11575446
attr interpolationmode  none
attr source  packetReceivedFromLower
attr title  "packets received from lower layer, sum(packetBytes)"
scalar StaticHierarchical.gw[2].wlan[0].mac 	sentDownPk:count 	82561
attr interpolationmode  none
attr source  packetSentToLower
attr title  "packets sent to lower layer, count"
scalar StaticHierarchical.gw[2].wlan[0].mac 	sentDownPk:sum(packetBytes) 	8413606
attr interpolationmode  none
attr source  packetSentToLower
attr title  "packets sent to lower layer, sum(packetBytes)"
scalar StaticHierarchical.gw[2].wlan[0].radio 	lossRate:min 	0
attr interpolationmode  backward-sample-hold
attr title  "packet loss rate, min"
scalar StaticHierarchical.gw[2].wlan[0].radio 	lossRate:max 	0.2
attr interpolationmode  backward-sample-hold
attr title  "packet loss rate, max"
scalar StaticHierarchical.gw[2].wlan[0].radio 	lossRate:timeavg 	0.017548795356152
attr interpolationmode  backward-sample-hold
attr title  "packet loss rate, timeavg"
statistic StaticHierarchical.gw[2].wlan[0].radio 	channelNo:histogram
field count 1
field mean 2
field stddev -nan
field sum 2
field sqrsum 4
field min 2
field max 2
attr interpolationmode  sample-hold
attr title  "channel no, histogram"
bin	-INF	0
bin	1	0
bin	2	1
bin	3	0
scalar StaticHierarchical.gw[2].wlan[0].radio 	bitrate:min 	11000000
attr interpolationmode  sample-hold
attr title  "tx bitrate, min"
attr unit  bps
scalar StaticHierarchical.gw[2].wlan[0].radio 	bitrate:max 	11000000
attr interpolationmode  sample-hold
attr title  "tx bitrate, max"
attr unit  bps
scalar StaticHierarchical.gw[2].wlan[0].radio 	bitrate:timeavg 	11000000
attr interpolationmode  sample-hold
attr title  "tx bitrate, timeavg"
attr unit  bps
scalar StaticHierarchical.gw[2].wlan[0].radio 	radioState:count 	388600
attr interpolationmode  sample-hold
attr title  "radio state (enum), count"
scalar StaticHierarchical.gw[2].wlan[1].mgmt 	dataQueueLen:max 	10
attr interpolationmode  sample-hold
attr title  "data queue length, max"
scalar StaticHierarchical.gw[2].wlan[1].mgmt 	dataQueueLen:timeavg 	0.010009185087778
attr interpolationmode  sample-hold
attr title  "data queue length, timeavg"
scalar StaticHierarchical.gw[2].wlan[1].mgmt 	dropPkByQueue:count 	44
attr interpolationmode  none
attr source  dropPkByQueue
attr title  "packets dropped by queue, count"
scalar StaticHierarchical.gw[2].wlan[1].mgmt 	dropPkByQueue:sum(packetBytes) 	8360
attr interpolationmode  none
attr source  dropPkByQueue
attr title  "packets dropped by queue, sum(packetBytes)"
scalar StaticHierarchical.gw[2].wlan[1].mac 	"number of received packets" 	109102
scalar StaticHierarchical.gw[2].wlan[1].mac 	"number of collisions" 	57338
scalar StaticHierarchical.gw[2].wlan[1].mac 	"number of internal collisions" 	0
scalar StaticHierarchical.gw[2].wlan[1].mac 	"number of retry for AC 0" 	21345
scalar StaticHierarchical.gw[2].wlan[1].mac 	"sent and received bits" 	165994960
scalar StaticHierarchical.gw[2].wlan[1].mac 	"sent packet within AC 0" 	109210
scalar StaticHierarchical.gw[2].wlan[1].mac 	"sent in TXOP " 	0
scalar StaticHierarchical.gw[2].wlan[1].mac 	"sentWithoutRetry AC 0" 	98202
scalar StaticHierarchical.gw[2].wlan[1].mac 	"numGivenUp AC 0" 	6
scalar StaticHierarchical.gw[2].wlan[1].mac 	"numDropped AC 0" 	0
scalar StaticHierarchical.gw[2].wlan[1].mac 	rcvdPkFromHL:count 	109229
attr interpolationmode  none
attr source  packetReceivedFromUpper
attr title  "packets received from higher layer, count"
scalar StaticHierarchical.gw[2].wlan[1].mac 	rcvdPkFromHL:sum(packetBytes) 	20750510
attr interpolationmode  none
attr source  packetReceivedFromUpper
attr title  "packets received from higher layer, sum(packetBytes)"
scalar StaticHierarchical.gw[2].wlan[1].mac 	passedUpPk:count 	109114
attr interpolationmode  none
attr source  packetSentToUpper
attr title  "packets passed to higher layer, count"
scalar StaticHierarchical.gw[2].wlan[1].mac 	passedUpPk:sum(packetBytes) 	20727940
attr interpolationmode  none
attr source  packetSentToUpper
attr title  "packets passed to higher layer, sum(packetBytes)"
scalar StaticHierarchical.gw[2].wlan[1].mac 	rcvdPkFromLL:count 	398114
attr interpolationmode  none
attr source  packetReceivedFromLower
attr title  "packets received from lower layer, count"
scalar StaticHierarchical.gw[2].wlan[1].mac 	rcvdPkFromLL:sum(packetBytes) 	43716452
attr interpolationmode  none
attr source  packetReceivedFromLower
attr title  "packets received from lower layer, sum(packetBytes)"
scalar StaticHierarchical.gw[2].wlan[1].mac 	sentDownPk:count 	239676
attr interpolationmode  none
attr source  packetSentToLower
attr title  "packets sent to lower layer, count"
scalar StaticHierarchical.gw[2].wlan[1].mac 	sentDownPk:sum(packetBytes) 	26332528
attr interpolationmode  none
attr source  packetSentToLower
attr title  "packets sent to lower layer, sum(packetBytes)"
scalar StaticHierarchical.gw[2].wlan[1].radio 	lossRate:min 	0
attr interpolationmode  backward-sample-hold
attr title  "packet loss rate, min"
scalar StaticHierarchical.gw[2].wlan[1].radio 	lossRate:max 	0.5
attr interpolationmode  backward-sample-hold
attr title  "packet loss rate, max"
scalar StaticHierarchical.gw[2].wlan[1].radio 	lossRate:timeavg 	0.14663235026271
attr interpolationmode  backward-sample-hold
attr title  "packet loss rate, timeavg"
statistic StaticHierarchical.gw[2].wlan[1].radio 	channelNo:histogram
field count 1
field mean 5
field stddev -nan
field sum 5
field sqrsum 25
field min 5
field max 5
attr interpolationmode  sample-hold
attr title  "channel no, histogram"
bin	-INF	0
bin	4	0
bin	5	1
bin	6	0
scalar StaticHierarchical.gw[2].wlan[1].radio 	bitrate:min 	11000000
attr interpolationmode  sample-hold
attr title  "tx bitrate, min"
attr unit  bps
scalar StaticHierarchical.gw[2].wlan[1].radio 	bitrate:max 	11000000
attr interpolationmode  sample-hold
attr title  "tx bitrate, max"
attr unit  bps
scalar StaticHierarchical.gw[2].wlan[1].radio 	bitrate:timeavg 	11000000
attr interpolationmode  sample-hold
attr title  "tx bitrate, timeavg"
attr unit  bps
scalar StaticHierarchical.gw[2].wlan[1].radio 	radioState:count 	1298709
attr interpolationmode  sample-hold
attr title  "radio state (enum), count"
scalar StaticHierarchical.gw[2].udp 	droppedPkBadChecksum:count 	0
attr interpolationmode  none
attr title  "packets dropped (checksum error), count"
scalar StaticHierarchical.gw[2].udp 	droppedPkWrongPort:count 	0
attr interpolationmode  none
attr title  "packets dropped (wrong port), count"
scalar StaticHierarchical.gw[2].udp 	passedUpPk:count 	0
attr interpolationmode  none
attr title  "packets passed up, count"
scalar StaticHierarchical.gw[2].udp 	rcvdPk:count 	0
attr interpolationmode  none
attr source  rcvdPk
attr title  "packets received, count"
scalar StaticHierarchical.gw[2].udp 	rcvdPk:sum(packetBytes) 	0
attr interpolationmode  none
attr source  rcvdPk
attr title  "packets received, sum(packetBytes)"
scalar StaticHierarchical.gw[2].udp 	sentPk:count 	0
attr interpolationmode  none
attr source  sentPk
attr title  "packets sent, count"
scalar StaticHierarchical.gw[2].udp 	sentPk:sum(packetBytes) 	0
attr interpolationmode  none
attr source  sentPk
attr title  "packets sent, sum(packetBytes)"
scalar StaticHierarchical.gw[2].pingApp[0] 	numOutOfOrderArrivals:last 	-nan
attr interpolationmode  none
attr title  "ping out-of-order arrivals, last"
scalar StaticHierarchical.gw[2].pingApp[0] 	pingRxSeq:count 	0
attr interpolationmode  none
attr title  "ping rx seq, count"
scalar StaticHierarchical.gw[2].pingApp[0] 	pingTxSeq:count 	0
attr interpolationmode  none
attr title  "ping tx seq, count"
scalar StaticHierarchical.gw[2].pingApp[0] 	numLost:last 	-nan
attr interpolationmode  none
attr title  "pings lost, last"
statistic StaticHierarchical.gw[2].pingApp[0] 	rtt:histogram
field count 0
field mean -nan
field stddev -nan
field sum 0
field sqrsum 0
field min -nan
field max -nan
attr interpolationmode  none
attr title  "ping round-trip time, histogram"
attr unit  s
bin	-INF	0
bin	-0.5	0
bin	-0.46666666666667	0
bin	-0.43333333333333	0
bin	-0.4	0
bin	-0.36666666666667	0
bin	-0.33333333333333	0
bin	-0.3	0
bin	-0.26666666666667	0
bin	-0.23333333333333	0
bin	-0.2	0
bin	-0.16666666666667	0
bin	-0.13333333333333	0
bin	-0.1	0
bin	-0.066666666666667	0
bin	-0.033333333333333	0
bin	0	0
bin	0.033333333333333	0
bin	0.066666666666667	0
bin	0.1	0
bin	0.13333333333333	0
bin	0.16666666666667	0
bin	0.2	0
bin	0.23333333333333	0
bin	0.26666666666667	0
bin	0.3	0
bin	0.33333333333333	0
bin	0.36666666666667	0
bin	0.4	0
bin	0.43333333333333	0
bin	0.46666666666667	0
bin	0.5	0
scalar StaticHierarchical.gw[2].pingTestApp[0] 	numOutOfOrderArrivals:last 	-nan
attr interpolationmode  none
attr title  "ping out-of-order arrivals, last"
scalar StaticHierarchical.gw[2].pingTestApp[0] 	pingRxSeq:count 	0
attr interpolationmode  none
attr title  "ping rx seq, count"
scalar StaticHierarchical.gw[2].pingTestApp[0] 	pingTxSeq:count 	0
attr interpolationmode  none
attr title  "ping tx seq, count"
scalar StaticHierarchical.gw[2].pingTestApp[0] 	numLost:last 	-nan
attr interpolationmode  none
attr title  "pings lost, last"
statistic StaticHierarchical.gw[2].pingTestApp[0] 	rtt:histogram
field count 0
field mean -nan
field stddev -nan
field sum 0
field sqrsum 0
field min -nan
field max -nan
attr interpolationmode  none
attr title  "ping round-trip time, histogram"
attr unit  s
bin	-INF	0
bin	-0.5	0
bin	-0.46666666666667	0
bin	-0.43333333333333	0
bin	-0.4	0
bin	-0.36666666666667	0
bin	-0.33333333333333	0
bin	-0.3	0
bin	-0.26666666666667	0
bin	-0.23333333333333	0
bin	-0.2	0
bin	-0.16666666666667	0
bin	-0.13333333333333	0
bin	-0.1	0
bin	-0.066666666666667	0
bin	-0.033333333333333	0
bin	0	0
bin	0.033333333333333	0
bin	0.066666666666667	0
bin	0.1	0
bin	0.13333333333333	0
bin	0.16666666666667	0
bin	0.2	0
bin	0.23333333333333	0
bin	0.26666666666667	0
bin	0.3	0
bin	0.33333333333333	0
bin	0.36666666666667	0
bin	0.4	0
bin	0.43333333333333	0
bin	0.46666666666667	0
bin	0.5	0
scalar StaticHierarchical.gw[3].networkLayer.arp 	failedARPResolution:count 	0
attr title  "ARP failed resolutions, count"
scalar StaticHierarchical.gw[3].networkLayer.arp 	completedARPResolution:count 	88
attr title  "ARP completed resolutions, count"
scalar StaticHierarchical.gw[3].networkLayer.arp 	initiatedARPResolution:count 	54
attr title  "ARP initiated resolutions, count"
scalar StaticHierarchical.gw[3].networkLayer.arp 	sentReply:count 	15
attr title  "ARP replies sent, count"
scalar StaticHierarchical.gw[3].networkLayer.arp 	sentReq:count 	54
attr title  "ARP request sent, count"
scalar StaticHierarchical.gw[3].lo0.lo 	droppedPkBitError:count 	0
attr interpolationmode  none
attr source  dropPkBitError
attr title  "packets dropped/bit error, count"
scalar StaticHierarchical.gw[3].lo0.lo 	droppedPkBitError:sum(packetBytes) 	0
attr interpolationmode  none
attr source  dropPkBitError
attr title  "packets dropped/bit error, sum(packetBytes)"
scalar StaticHierarchical.gw[3].lo0.lo 	rcvdPkFromHL:count 	0
attr interpolationmode  none
attr source  packetReceivedFromUpper
attr title  "packets received from higher layer, count"
scalar StaticHierarchical.gw[3].lo0.lo 	rcvdPkFromHL:sum(packetBytes) 	0
attr interpolationmode  none
attr source  packetReceivedFromUpper
attr title  "packets received from higher layer, sum(packetBytes)"
scalar StaticHierarchical.gw[3].lo0.lo 	passedUpPk:count 	0
attr interpolationmode  none
attr source  packetSentToUpper
attr title  "packets passed to higher layer, count"
scalar StaticHierarchical.gw[3].lo0.lo 	passedUpPk:sum(packetBytes) 	0
attr interpolationmode  none
attr source  packetSentToUpper
attr title  "packets passed to higher layer, sum(packetBytes)"
scalar StaticHierarchical.gw[3].wlan[0].mgmt 	dataQueueLen:max 	1
attr interpolationmode  sample-hold
attr title  "data queue length, max"
scalar StaticHierarchical.gw[3].wlan[0].mgmt 	dataQueueLen:timeavg 	2.95752e-06
attr interpolationmode  sample-hold
attr title  "data queue length, timeavg"
scalar StaticHierarchical.gw[3].wlan[0].mgmt 	dropPkByQueue:count 	0
attr interpolationmode  none
attr source  dropPkByQueue
attr title  "packets dropped by queue, count"
scalar StaticHierarchical.gw[3].wlan[0].mgmt 	dropPkByQueue:sum(packetBytes) 	0
attr interpolationmode  none
attr source  dropPkByQueue
attr title  "packets dropped by queue, sum(packetBytes)"
scalar StaticHierarchical.gw[3].wlan[0].mac 	"number of received packets" 	36703
scalar StaticHierarchical.gw[3].wlan[0].mac 	"number of collisions" 	2106
scalar StaticHierarchical.gw[3].wlan[0].mac 	"number of internal collisions" 	0
scalar StaticHierarchical.gw[3].wlan[0].mac 	"number of retry for AC 0" 	242
scalar StaticHierarchical.gw[3].wlan[0].mac 	"sent and received bits" 	55474800
scalar StaticHierarchical.gw[3].wlan[0].mac 	"sent packet within AC 0" 	36483
scalar StaticHierarchical.gw[3].wlan[0].mac 	"sent in TXOP " 	0
scalar StaticHierarchical.gw[3].wlan[0].mac 	"sentWithoutRetry AC 0" 	36317
scalar StaticHierarchical.gw[3].wlan[0].mac 	"numGivenUp AC 0" 	0
scalar StaticHierarchical.gw[3].wlan[0].mac 	"numDropped AC 0" 	0
scalar StaticHierarchical.gw[3].wlan[0].mac 	rcvdPkFromHL:count 	36525
attr interpolationmode  none
attr source  packetReceivedFromUpper
attr title  "packets received from higher layer, count"
scalar StaticHierarchical.gw[3].wlan[0].mac 	rcvdPkFromHL:sum(packetBytes) 	6934350
attr interpolationmode  none
attr source  packetReceivedFromUpper
attr title  "packets received from higher layer, sum(packetBytes)"
scalar StaticHierarchical.gw[3].wlan[0].mac 	passedUpPk:count 	36716
attr interpolationmode  none
attr source  packetSentToUpper
attr title  "packets passed to higher layer, count"
scalar StaticHierarchical.gw[3].wlan[0].mac 	passedUpPk:sum(packetBytes) 	6968480
attr interpolationmode  none
attr source  packetSentToUpper
attr title  "packets passed to higher layer, sum(packetBytes)"
scalar StaticHierarchical.gw[3].wlan[0].mac 	rcvdPkFromLL:count 	120743
attr interpolationmode  none
attr source  packetReceivedFromLower
attr title  "packets received from lower layer, count"
scalar StaticHierarchical.gw[3].wlan[0].mac 	rcvdPkFromLL:sum(packetBytes) 	12467194
attr interpolationmode  none
attr source  packetReceivedFromLower
attr title  "packets received from lower layer, sum(packetBytes)"
scalar StaticHierarchical.gw[3].wlan[0].mac 	sentDownPk:count 	73470
attr interpolationmode  none
attr source  packetSentToLower
attr title  "packets sent to lower layer, count"
scalar StaticHierarchical.gw[3].wlan[0].mac 	sentDownPk:sum(packetBytes) 	7494172
attr interpolationmode  none
attr source  packetSentToLower
attr title  "packets sent to lower layer, sum(packetBytes)"
scalar StaticHierarchical.gw[3].wlan[0].radio 	lossRate:min 	0
attr interpolationmode  backward-sample-hold
attr title  "packet loss rate, min"
scalar StaticHierarchical.gw[3].wlan[0].radio 	lossRate:max 	0.22
attr interpolationmode  backward-sample-hold
attr title  "packet loss rate, max"
scalar StaticHierarchical.gw[3].wlan[0].radio 	lossRate:timeavg 	0.017773774392888
attr interpolationmode  backward-sample-hold
attr title  "packet loss rate, timeavg"
statistic StaticHierarchical.gw[3].wlan[0].radio 	channelNo:histogram
field count 1
field mean 3
field stddev -nan
field sum 3
field sqrsum 9
field min 3
field max 3
attr interpolationmode  sample-hold
attr title  "channel no, histogram"
bin	-INF	0
bin	2	0
bin	3	1
bin	4	0
scalar StaticHierarchical.gw[3].wlan[0].radio 	bitrate:min 	11000000
attr interpolationmode  sample-hold
attr title  "tx bitrate, min"
attr unit  bps
scalar StaticHierarchical.gw[3].wlan[0].radio 	bitrate:max 	11000000
attr interpolationmode  sample-hold
attr title  "tx bitrate, max"
attr unit  bps
scalar StaticHierarchical.gw[3].wlan[0].radio 	bitrate:timeavg 	11000000
attr interpolationmode  sample-hold
attr title  "tx bitrate, timeavg"
attr unit  bps
scalar StaticHierarchical.gw[3].wlan[0].radio 	radioState:count 	388119
attr interpolationmode  sample-hold
attr title  "radio state (enum), count"
scalar StaticHierarchical.gw[3].wlan[1].mgmt 	dataQueueLen:max 	7
attr interpolationmode  sample-hold
attr title  "data queue length, max"
scalar StaticHierarchical.gw[3].wlan[1].mgmt 	dataQueueLen:timeavg 	0.017122119346667
attr interpolationmode  sample-hold
attr title  "data queue length, timeavg"
scalar StaticHierarchical.gw[3].wlan[1].mgmt 	dropPkByQueue:count 	0
attr interpolationmode  none
attr source  dropPkByQueue
attr title  "packets dropped by queue, count"
scalar StaticHierarchical.gw[3].wlan[1].mgmt 	dropPkByQueue:sum(packetBytes) 	0
attr interpolationmode  none
attr source  dropPkByQueue
attr title  "packets dropped by queue, sum(packetBytes)"
scalar StaticHierarchical.gw[3].wlan[1].mac 	"number of received packets" 	90970
scalar StaticHierarchical.gw[3].wlan[1].mac 	"number of collisions" 	38665
scalar StaticHierarchical.gw[3].wlan[1].mac 	"number of internal collisions" 	0
scalar StaticHierarchical.gw[3].wlan[1].mac 	"number of retry for AC 0" 	30185
scalar StaticHierarchical.gw[3].wlan[1].mac 	"sent and received bits" 	138169280
scalar StaticHierarchical.gw[3].wlan[1].mac 	"sent packet within AC 0" 	90904
scalar StaticHierarchical.gw[3].wlan[1].mac 	"sent in TXOP " 	0
scalar StaticHierarchical.gw[3].wlan[1].mac 	"sentWithoutRetry AC 0" 	77916
scalar StaticHierarchical.gw[3].wlan[1].mac 	"numGivenUp AC 0" 	99
scalar StaticHierarchical.gw[3].wlan[1].mac 	"numDropped AC 0" 	0
scalar StaticHierarchical.gw[3].wlan[1].mac 	rcvdPkFromHL:count 	91016
attr interpolationmode  none
attr source  packetReceivedFromUpper
attr title  "packets received from higher layer, count"
scalar StaticHierarchical.gw[3].wlan[1].mac 	rcvdPkFromHL:sum(packetBytes) 	17290160
attr interpolationmode  none
attr source  packetReceivedFromUpper
attr title  "packets received from higher layer, sum(packetBytes)"
scalar StaticHierarchical.gw[3].wlan[1].mac 	passedUpPk:count 	90848
attr interpolationmode  none
attr source  packetSentToUpper
attr title  "packets passed to higher layer, count"
scalar StaticHierarchical.gw[3].wlan[1].mac 	passedUpPk:sum(packetBytes) 	17257640
attr interpolationmode  none
attr source  packetSentToUpper
attr title  "packets passed to higher layer, sum(packetBytes)"
scalar StaticHierarchical.gw[3].wlan[1].mac 	rcvdPkFromLL:count 	328857
attr interpolationmode  none
attr source  packetReceivedFromLower
attr title  "packets received from lower layer, count"
scalar StaticHierarchical.gw[3].wlan[1].mac 	rcvdPkFromLL:sum(packetBytes) 	36911550
attr interpolationmode  none
attr source  packetReceivedFromLower
attr title  "packets received from lower layer, sum(packetBytes)"
scalar StaticHierarchical.gw[3].wlan[1].mac 	sentDownPk:count 	212171
attr interpolationmode  none
attr source  packetSentToLower
attr title  "packets sent to lower layer, count"
scalar StaticHierarchical.gw[3].wlan[1].mac 	sentDownPk:sum(packetBytes) 	24297930
attr interpolationmode  none
attr source  packetSentToLower
attr title  "packets sent to lower layer, sum(packetBytes)"
scalar StaticHierarchical.gw[3].wlan[1].radio 	lossRate:min 	0
attr interpolationmode  backward-sample-hold
attr title  "packet loss rate, min"
scalar StaticHierarchical.gw[3].wlan[1].radio 	lossRate:max 	0.48
attr interpolationmode  backward-sample-hold
attr title  "packet loss rate, max"
scalar StaticHierarchical.gw[3].wlan[1].radio 	lossRate:timeavg 	0.12037161069078
attr interpolationmode  backward-sample-hold
attr title  "packet loss rate, timeavg"
statistic StaticHierarchical.gw[3].wlan[1].radio 	channelNo:histogram
field count 1
field mean 5
field stddev -nan
field sum 5
field sqrsum 25
field min 5
field max 5
attr interpolationmode  sample-hold
attr title  "channel no, histogram"
bin	-INF	0
bin	4	0
bin	5	1
bin	6	0
scalar StaticHierarchical.gw[3].wlan[1].radio 	bitrate:min 	11000000
attr interpolationmode  sample-hold
attr title  "tx bitrate, min"
attr unit  bps
scalar StaticHierarchical.gw[3].wlan[1].radio 	bitrate:max 	11000000
attr interpolationmode  sample-hold
attr title  "tx bitrate, max"
attr unit  bps
scalar StaticHierarchical.gw[3].wlan[1].radio 	bitrate:timeavg 	11000000
attr interpolationmode  sample-hold
attr title  "tx bitrate, timeavg"
attr unit  bps
scalar StaticHierarchical.gw[3].wlan[1].radio 	radioState:count 	1080066
attr interpolationmode  sample-hold
attr title  "radio state (enum), count"
scalar StaticHierarchical.gw[3].udp 	droppedPkBadChecksum:count 	0
attr interpolationmode  none
attr title  "packets dropped (checksum error), count"
scalar StaticHierarchical.gw[3].udp 	droppedPkWrongPort:count 	0
attr interpolationmode  none
attr title  "packets dropped (wrong port), count"
scalar StaticHierarchical.gw[3].udp 	passedUpPk:count 	0
attr interpolationmode  none
attr title  "packets passed up, count"
scalar StaticHierarchical.gw[3].udp 	rcvdPk:count 	0
attr interpolationmode  none
attr source  rcvdPk
attr title  "packets received, count"
scalar StaticHierarchical.gw[3].udp 	rcvdPk:sum(packetBytes) 	0
attr interpolationmode  none
attr source  rcvdPk
attr title  "packets received, sum(packetBytes)"
scalar StaticHierarchical.gw[3].udp 	sentPk:count 	0
attr interpolationmode  none
attr source  sentPk
attr title  "packets sent, count"
scalar StaticHierarchical.gw[3].udp 	sentPk:sum(packetBytes) 	0
attr interpolationmode  none
attr source  sentPk
attr title  "packets sent, sum(packetBytes)"
scalar StaticHierarchical.gw[3].pingApp[0] 	numOutOfOrderArrivals:last 	-nan
attr interpolationmode  none
attr title  "ping out-of-order arrivals, last"
scalar StaticHierarchical.gw[3].pingApp[0] 	pingRxSeq:count 	0
attr interpolationmode  none
attr title  "ping rx seq, count"
scalar StaticHierarchical.gw[3].pingApp[0] 	pingTxSeq:count 	0
attr interpolationmode  none
attr title  "ping tx seq, count"
scalar StaticHierarchical.gw[3].pingApp[0] 	numLost:last 	-nan
attr interpolationmode  none
attr title  "pings lost, last"
statistic StaticHierarchical.gw[3].pingApp[0] 	rtt:histogram
field count 0
field mean -nan
field stddev -nan
field sum 0
field sqrsum 0
field min -nan
field max -nan
attr interpolationmode  none
attr title  "ping round-trip time, histogram"
attr unit  s
bin	-INF	0
bin	-0.5	0
bin	-0.46666666666667	0
bin	-0.43333333333333	0
bin	-0.4	0
bin	-0.36666666666667	0
bin	-0.33333333333333	0
bin	-0.3	0
bin	-0.26666666666667	0
bin	-0.23333333333333	0
bin	-0.2	0
bin	-0.16666666666667	0
bin	-0.13333333333333	0
bin	-0.1	0
bin	-0.066666666666667	0
bin	-0.033333333333333	0
bin	0	0
bin	0.033333333333333	0
bin	0.066666666666667	0
bin	0.1	0
bin	0.13333333333333	0
bin	0.16666666666667	0
bin	0.2	0
bin	0.23333333333333	0
bin	0.26666666666667	0
bin	0.3	0
bin	0.33333333333333	0
bin	0.36666666666667	0
bin	0.4	0
bin	0.43333333333333	0
bin	0.46666666666667	0
bin	0.5	0
scalar StaticHierarchical.gw[3].pingTestApp[0] 	numOutOfOrderArrivals:last 	-nan
attr interpolationmode  none
attr title  "ping out-of-order arrivals, last"
scalar StaticHierarchical.gw[3].pingTestApp[0] 	pingRxSeq:count 	0
attr interpolationmode  none
attr title  "ping rx seq, count"
scalar StaticHierarchical.gw[3].pingTestApp[0] 	pingTxSeq:count 	0
attr interpolationmode  none
attr title  "ping tx seq, count"
scalar StaticHierarchical.gw[3].pingTestApp[0] 	numLost:last 	-nan
attr interpolationmode  none
attr title  "pings lost, last"
statistic StaticHierarchical.gw[3].pingTestApp[0] 	rtt:histogram
field count 0
field mean -nan
field stddev -nan
field sum 0
field sqrsum 0
field min -nan
field max -nan
attr interpolationmode  none
attr title  "ping round-trip time, histogram"
attr unit  s
bin	-INF	0
bin	-0.5	0
bin	-0.46666666666667	0
bin	-0.43333333333333	0
bin	-0.4	0
bin	-0.36666666666667	0
bin	-0.33333333333333	0
bin	-0.3	0
bin	-0.26666666666667	0
bin	-0.23333333333333	0
bin	-0.2	0
bin	-0.16666666666667	0
bin	-0.13333333333333	0
bin	-0.1	0
bin	-0.066666666666667	0
bin	-0.033333333333333	0
bin	0	0
bin	0.033333333333333	0
bin	0.066666666666667	0
bin	0.1	0
bin	0.13333333333333	0
bin	0.16666666666667	0
bin	0.2	0
bin	0.23333333333333	0
bin	0.26666666666667	0
bin	0.3	0
bin	0.33333333333333	0
bin	0.36666666666667	0
bin	0.4	0
bin	0.43333333333333	0
bin	0.46666666666667	0
bin	0.5	0
scalar StaticHierarchical.gw[4].networkLayer.arp 	failedARPResolution:count 	0
attr title  "ARP failed resolutions, count"
scalar StaticHierarchical.gw[4].networkLayer.arp 	completedARPResolution:count 	78
attr title  "ARP completed resolutions, count"
scalar StaticHierarchical.gw[4].networkLayer.arp 	initiatedARPResolution:count 	46
attr title  "ARP initiated resolutions, count"
scalar StaticHierarchical.gw[4].networkLayer.arp 	sentReply:count 	7
attr title  "ARP replies sent, count"
scalar StaticHierarchical.gw[4].networkLayer.arp 	sentReq:count 	49
attr title  "ARP request sent, count"
scalar StaticHierarchical.gw[4].lo0.lo 	droppedPkBitError:count 	0
attr interpolationmode  none
attr source  dropPkBitError
attr title  "packets dropped/bit error, count"
scalar StaticHierarchical.gw[4].lo0.lo 	droppedPkBitError:sum(packetBytes) 	0
attr interpolationmode  none
attr source  dropPkBitError
attr title  "packets dropped/bit error, sum(packetBytes)"
scalar StaticHierarchical.gw[4].lo0.lo 	rcvdPkFromHL:count 	0
attr interpolationmode  none
attr source  packetReceivedFromUpper
attr title  "packets received from higher layer, count"
scalar StaticHierarchical.gw[4].lo0.lo 	rcvdPkFromHL:sum(packetBytes) 	0
attr interpolationmode  none
attr source  packetReceivedFromUpper
attr title  "packets received from higher layer, sum(packetBytes)"
scalar StaticHierarchical.gw[4].lo0.lo 	passedUpPk:count 	0
attr interpolationmode  none
attr source  packetSentToUpper
attr title  "packets passed to higher layer, count"
scalar StaticHierarchical.gw[4].lo0.lo 	passedUpPk:sum(packetBytes) 	0
attr interpolationmode  none
attr source  packetSentToUpper
attr title  "packets passed to higher layer, sum(packetBytes)"
scalar StaticHierarchical.gw[4].wlan[0].mgmt 	dataQueueLen:max 	2
attr interpolationmode  sample-hold
attr title  "data queue length, max"
scalar StaticHierarchical.gw[4].wlan[0].mgmt 	dataQueueLen:timeavg 	6.8774577777778e-06
attr interpolationmode  sample-hold
attr title  "data queue length, timeavg"
scalar StaticHierarchical.gw[4].wlan[0].mgmt 	dropPkByQueue:count 	0
attr interpolationmode  none
attr source  dropPkByQueue
attr title  "packets dropped by queue, count"
scalar StaticHierarchical.gw[4].wlan[0].mgmt 	dropPkByQueue:sum(packetBytes) 	0
attr interpolationmode  none
attr source  dropPkByQueue
attr title  "packets dropped by queue, sum(packetBytes)"
scalar StaticHierarchical.gw[4].wlan[0].mac 	"number of received packets" 	36775
scalar StaticHierarchical.gw[4].wlan[0].mac 	"number of collisions" 	1613
scalar StaticHierarchical.gw[4].wlan[0].mac 	"number of internal collisions" 	0
scalar StaticHierarchical.gw[4].wlan[0].mac 	"number of retry for AC 0" 	156
scalar StaticHierarchical.gw[4].wlan[0].mac 	"sent and received bits" 	55281600
scalar StaticHierarchical.gw[4].wlan[0].mac 	"sent packet within AC 0" 	36355
scalar StaticHierarchical.gw[4].wlan[0].mac 	"sent in TXOP " 	0
scalar StaticHierarchical.gw[4].wlan[0].mac 	"sentWithoutRetry AC 0" 	36258
scalar StaticHierarchical.gw[4].wlan[0].mac 	"numGivenUp AC 0" 	0
scalar StaticHierarchical.gw[4].wlan[0].mac 	"numDropped AC 0" 	0
scalar StaticHierarchical.gw[4].wlan[0].mac 	rcvdPkFromHL:count 	36396
attr interpolationmode  none
attr source  packetReceivedFromUpper
attr title  "packets received from higher layer, count"
scalar StaticHierarchical.gw[4].wlan[0].mac 	rcvdPkFromHL:sum(packetBytes) 	6910200
attr interpolationmode  none
attr source  packetReceivedFromUpper
attr title  "packets received from higher layer, sum(packetBytes)"
scalar StaticHierarchical.gw[4].wlan[0].mac 	passedUpPk:count 	36779
attr interpolationmode  none
attr source  packetSentToUpper
attr title  "packets passed to higher layer, count"
scalar StaticHierarchical.gw[4].wlan[0].mac 	passedUpPk:sum(packetBytes) 	6980210
attr interpolationmode  none
attr source  packetSentToUpper
attr title  "packets passed to higher layer, sum(packetBytes)"
scalar StaticHierarchical.gw[4].wlan[0].mac 	rcvdPkFromLL:count 	129844
attr interpolationmode  none
attr source  packetReceivedFromLower
attr title  "packets received from lower layer, count"
scalar StaticHierarchical.gw[4].wlan[0].mac 	rcvdPkFromLL:sum(packetBytes) 	13411512
attr interpolationmode  none
attr source  packetReceivedFromLower
attr title  "packets received from lower layer, sum(packetBytes)"
scalar StaticHierarchical.gw[4].wlan[0].mac 	sentDownPk:count 	73327
attr interpolationmode  none
attr source  packetSentToLower
attr title  "packets sent to lower layer, count"
scalar StaticHierarchical.gw[4].wlan[0].mac 	sentDownPk:sum(packetBytes) 	7454690
attr interpolationmode  none
attr source  packetSentToLower
attr title  "packets sent to lower layer, sum(packetBytes)"
scalar StaticHierarchical.gw[4].wlan[0].radio 	lossRate:min 	0
attr interpolationmode  backward-sample-hold
attr title  "packet loss rate, min"
scalar StaticHierarchical.gw[4].wlan[0].radio 	lossRate:max 	0.2
attr interpolationmode  backward-sample-hold
attr title  "packet loss rate, max"
scalar StaticHierarchical.gw[4].wlan[0].radio 	lossRate:timeavg 	0.012473765835196
attr interpolationmode  backward-sample-hold
attr title  "packet loss rate, timeavg"
statistic StaticHierarchical.gw[4].wlan[0].radio 	channelNo:histogram
field count 1
field mean 4
field stddev -nan
field sum 4
field sqrsum 16
field min 4
field max 4
attr interpolationmode  sample-hold
attr title  "channel no, histogram"
bin	-INF	0
bin	3	0
bin	4	1
bin	5	0
scalar StaticHierarchical.gw[4].wlan[0].radio 	bitrate:min 	11000000
attr interpolationmode  sample-hold
attr title  "tx bitrate, min"
attr unit  bps
scalar StaticHierarchical.gw[4].wlan[0].radio 	bitrate:max 	11000000
attr interpolationmode  sample-hold
attr title  "tx bitrate, max"
attr unit  bps
scalar StaticHierarchical.gw[4].wlan[0].radio 	bitrate:timeavg 	11000000
attr interpolationmode  sample-hold
attr title  "tx bitrate, timeavg"
attr unit  bps
scalar StaticHierarchical.gw[4].wlan[0].radio 	radioState:count 	406190
attr interpolationmode  sample-hold
attr title  "radio state (enum), count"
scalar StaticHierarchical.gw[4].wlan[1].mgmt 	dataQueueLen:max 	10
attr interpolationmode  sample-hold
attr title  "data queue length, max"
scalar StaticHierarchical.gw[4].wlan[1].mgmt 	dataQueueLen:timeavg 	0.00639721814
attr interpolationmode  sample-hold
attr title  "data queue length, timeavg"
scalar StaticHierarchical.gw[4].wlan[1].mgmt 	dropPkByQueue:count 	87
attr interpolationmode  none
attr source  dropPkByQueue
attr title  "packets dropped by queue, count"
scalar StaticHierarchical.gw[4].wlan[1].mgmt 	dropPkByQueue:sum(packetBytes) 	16530
attr interpolationmode  none
attr source  dropPkByQueue
attr title  "packets dropped by queue, sum(packetBytes)"
scalar StaticHierarchical.gw[4].wlan[1].mac 	"number of received packets" 	36445
scalar StaticHierarchical.gw[4].wlan[1].mac 	"number of collisions" 	3067
scalar StaticHierarchical.gw[4].wlan[1].mac 	"number of internal collisions" 	0
scalar StaticHierarchical.gw[4].wlan[1].mac 	"number of retry for AC 0" 	34809
scalar StaticHierarchical.gw[4].wlan[1].mac 	"sent and received bits" 	55021200
scalar StaticHierarchical.gw[4].wlan[1].mac 	"sent packet within AC 0" 	36199
scalar StaticHierarchical.gw[4].wlan[1].mac 	"sent in TXOP " 	0
scalar StaticHierarchical.gw[4].wlan[1].mac 	"sentWithoutRetry AC 0" 	23833
scalar StaticHierarchical.gw[4].wlan[1].mac 	"numGivenUp AC 0" 	433
scalar StaticHierarchical.gw[4].wlan[1].mac 	"numDropped AC 0" 	0
scalar StaticHierarchical.gw[4].wlan[1].mac 	rcvdPkFromHL:count 	36641
attr interpolationmode  none
attr source  packetReceivedFromUpper
attr title  "packets received from higher layer, count"
scalar StaticHierarchical.gw[4].wlan[1].mac 	rcvdPkFromHL:sum(packetBytes) 	6960110
attr interpolationmode  none
attr source  packetReceivedFromUpper
attr title  "packets received from higher layer, sum(packetBytes)"
scalar StaticHierarchical.gw[4].wlan[1].mac 	passedUpPk:count 	36372
attr interpolationmode  none
attr source  packetSentToUpper
attr title  "packets passed to higher layer, count"
scalar StaticHierarchical.gw[4].wlan[1].mac 	passedUpPk:sum(packetBytes) 	6908520
attr interpolationmode  none
attr source  packetSentToUpper
attr title  "packets passed to higher layer, sum(packetBytes)"
scalar StaticHierarchical.gw[4].wlan[1].mac 	rcvdPkFromLL:count 	211870
attr interpolationmode  none
attr source  packetReceivedFromLower
attr title  "packets received from lower layer, count"
scalar StaticHierarchical.gw[4].wlan[1].mac 	rcvdPkFromLL:sum(packetBytes) 	24263796
attr interpolationmode  none
attr source  packetReceivedFromLower
attr title  "packets received from lower layer, sum(packetBytes)"
scalar StaticHierarchical.gw[4].wlan[1].mac 	sentDownPk:count 	107894
attr interpolationmode  none
attr source  packetSentToLower
attr title  "packets sent to lower layer, count"
scalar StaticHierarchical.gw[4].wlan[1].mac 	sentDownPk:sum(packetBytes) 	14083260
attr interpolationmode  none
attr source  packetSentToLower
attr title  "packets sent to lower layer, sum(packetBytes)"
scalar StaticHierarchical.gw[4].wlan[1].radio 	lossRate:min 	0
attr interpolationmode  backward-sample-hold
attr title  "packet loss rate, min"
scalar StaticHierarchical.gw[4].wlan[1].radio 	lossRate:max 	0.12
attr interpolationmode  backward-sample-hold
attr title  "packet loss rate, max"
scalar StaticHierarchical.gw[4].wlan[1].radio 	lossRate:timeavg 	0.014776243087919
attr interpolationmode  backward-sample-hold
attr title  "packet loss rate, timeavg"
statistic StaticHierarchical.gw[4].wlan[1].radio 	channelNo:histogram
field count 1
field mean 5
field stddev -nan
field sum 5
field sqrsum 25
field min 5
field max 5
attr interpolationmode  sample-hold
attr title  "channel no, histogram"
bin	-INF	0
bin	4	0
bin	5	1
bin	6	0
scalar StaticHierarchical.gw[4].wlan[1].radio 	bitrate:min 	11000000
attr interpolationmode  sample-hold
attr title  "tx bitrate, min"
attr unit  bps
scalar StaticHierarchical.gw[4].wlan[1].radio 	bitrate:max 	11000000
attr interpolationmode  sample-hold
attr title  "tx bitrate, max"
attr unit  bps
scalar StaticHierarchical.gw[4].wlan[1].radio 	bitrate:timeavg 	11000000
attr interpolationmode  sample-hold
attr title  "tx bitrate, timeavg"
attr unit  bps
scalar StaticHierarchical.gw[4].wlan[1].radio 	radioState:count 	641021
attr interpolationmode  sample-hold
attr title  "radio state (enum), count"
scalar StaticHierarchical.gw[4].udp 	droppedPkBadChecksum:count 	0
attr interpolationmode  none
attr title  "packets dropped (checksum error), count"
scalar StaticHierarchical.gw[4].udp 	droppedPkWrongPort:count 	0
attr interpolationmode  none
attr title  "packets dropped (wrong port), count"
scalar StaticHierarchical.gw[4].udp 	passedUpPk:count 	0
attr interpolationmode  none
attr title  "packets passed up, count"
scalar StaticHierarchical.gw[4].udp 	rcvdPk:count 	0
attr interpolationmode  none
attr source  rcvdPk
attr title  "packets received, count"
scalar StaticHierarchical.gw[4].udp 	rcvdPk:sum(packetBytes) 	0
attr interpolationmode  none
attr source  rcvdPk
attr title  "packets received, sum(packetBytes)"
scalar StaticHierarchical.gw[4].udp 	sentPk:count 	0
attr interpolationmode  none
attr source  sentPk
attr title  "packets sent, count"
scalar StaticHierarchical.gw[4].udp 	sentPk:sum(packetBytes) 	0
attr interpolationmode  none
attr source  sentPk
attr title  "packets sent, sum(packetBytes)"
scalar StaticHierarchical.gw[4].pingApp[0] 	numOutOfOrderArrivals:last 	-nan
attr interpolationmode  none
attr title  "ping out-of-order arrivals, last"
scalar StaticHierarchical.gw[4].pingApp[0] 	pingRxSeq:count 	0
attr interpolationmode  none
attr title  "ping rx seq, count"
scalar StaticHierarchical.gw[4].pingApp[0] 	pingTxSeq:count 	0
attr interpolationmode  none
attr title  "ping tx seq, count"
scalar StaticHierarchical.gw[4].pingApp[0] 	numLost:last 	-nan
attr interpolationmode  none
attr title  "pings lost, last"
statistic StaticHierarchical.gw[4].pingApp[0] 	rtt:histogram
field count 0
field mean -nan
field stddev -nan
field sum 0
field sqrsum 0
field min -nan
field max -nan
attr interpolationmode  none
attr title  "ping round-trip time, histogram"
attr unit  s
bin	-INF	0
bin	-0.5	0
bin	-0.46666666666667	0
bin	-0.43333333333333	0
bin	-0.4	0
bin	-0.36666666666667	0
bin	-0.33333333333333	0
bin	-0.3	0
bin	-0.26666666666667	0
bin	-0.23333333333333	0
bin	-0.2	0
bin	-0.16666666666667	0
bin	-0.13333333333333	0
bin	-0.1	0
bin	-0.066666666666667	0
bin	-0.033333333333333	0
bin	0	0
bin	0.033333333333333	0
bin	0.066666666666667	0
bin	0.1	0
bin	0.13333333333333	0
bin	0.16666666666667	0
bin	0.2	0
bin	0.23333333333333	0
bin	0.26666666666667	0
bin	0.3	0
bin	0.33333333333333	0
bin	0.36666666666667	0
bin	0.4	0
bin	0.43333333333333	0
bin	0.46666666666667	0
bin	0.5	0
scalar StaticHierarchical.gw[4].pingTestApp[0] 	numOutOfOrderArrivals:last 	-nan
attr interpolationmode  none
attr title  "ping out-of-order arrivals, last"
scalar StaticHierarchical.gw[4].pingTestApp[0] 	pingRxSeq:count 	0
attr interpolationmode  none
attr title  "ping rx seq, count"
scalar StaticHierarchical.gw[4].pingTestApp[0] 	pingTxSeq:count 	0
attr interpolationmode  none
attr title  "ping tx seq, count"
scalar StaticHierarchical.gw[4].pingTestApp[0] 	numLost:last 	-nan
attr interpolationmode  none
attr title  "pings lost, last"
statistic StaticHierarchical.gw[4].pingTestApp[0] 	rtt:histogram
field count 0
field mean -nan
field stddev -nan
field sum 0
field sqrsum 0
field min -nan
field max -nan
attr interpolationmode  none
attr title  "ping round-trip time, histogram"
attr unit  s
bin	-INF	0
bin	-0.5	0
bin	-0.46666666666667	0
bin	-0.43333333333333	0
bin	-0.4	0
bin	-0.36666666666667	0
bin	-0.33333333333333	0
bin	-0.3	0
bin	-0.26666666666667	0
bin	-0.23333333333333	0
bin	-0.2	0
bin	-0.16666666666667	0
bin	-0.13333333333333	0
bin	-0.1	0
bin	-0.066666666666667	0
bin	-0.033333333333333	0
bin	0	0
bin	0.033333333333333	0
bin	0.066666666666667	0
bin	0.1	0
bin	0.13333333333333	0
bin	0.16666666666667	0
bin	0.2	0
bin	0.23333333333333	0
bin	0.26666666666667	0
bin	0.3	0
bin	0.33333333333333	0
bin	0.36666666666667	0
bin	0.4	0
bin	0.43333333333333	0
bin	0.46666666666667	0
bin	0.5	0
scalar StaticHierarchical.host[0].networkLayer.arp 	failedARPResolution:count 	0
attr title  "ARP failed resolutions, count"
scalar StaticHierarchical.host[0].networkLayer.arp 	completedARPResolution:count 	47
attr title  "ARP completed resolutions, count"
scalar StaticHierarchical.host[0].networkLayer.arp 	initiatedARPResolution:count 	6
attr title  "ARP initiated resolutions, count"
scalar StaticHierarchical.host[0].networkLayer.arp 	sentReply:count 	2
attr title  "ARP replies sent, count"
scalar StaticHierarchical.host[0].networkLayer.arp 	sentReq:count 	6
attr title  "ARP request sent, count"
scalar StaticHierarchical.host[0].lo0.lo 	droppedPkBitError:count 	0
attr interpolationmode  none
attr source  dropPkBitError
attr title  "packets dropped/bit error, count"
scalar StaticHierarchical.host[0].lo0.lo 	droppedPkBitError:sum(packetBytes) 	0
attr interpolationmode  none
attr source  dropPkBitError
attr title  "packets dropped/bit error, sum(packetBytes)"
scalar StaticHierarchical.host[0].lo0.lo 	rcvdPkFromHL:count 	0
attr interpolationmode  none
attr source  packetReceivedFromUpper
attr title  "packets received from higher layer, count"
scalar StaticHierarchical.host[0].lo0.lo 	rcvdPkFromHL:sum(packetBytes) 	0
attr interpolationmode  none
attr source  packetReceivedFromUpper
attr title  "packets received from higher layer, sum(packetBytes)"
scalar StaticHierarchical.host[0].lo0.lo 	passedUpPk:count 	0
attr interpolationmode  none
attr source  packetSentToUpper
attr title  "packets passed to higher layer, count"
scalar StaticHierarchical.host[0].lo0.lo 	passedUpPk:sum(packetBytes) 	0
attr interpolationmode  none
attr source  packetSentToUpper
attr title  "packets passed to higher layer, sum(packetBytes)"
scalar StaticHierarchical.host[0].wlan[0].mgmt 	dataQueueLen:max 	0
attr interpolationmode  sample-hold
attr title  "data queue length, max"
scalar StaticHierarchical.host[0].wlan[0].mgmt 	dataQueueLen:timeavg 	0
attr interpolationmode  sample-hold
attr title  "data queue length, timeavg"
scalar StaticHierarchical.host[0].wlan[0].mgmt 	dropPkByQueue:count 	0
attr interpolationmode  none
attr source  dropPkByQueue
attr title  "packets dropped by queue, count"
scalar StaticHierarchical.host[0].wlan[0].mgmt 	dropPkByQueue:sum(packetBytes) 	0
attr interpolationmode  none
attr source  dropPkByQueue
attr title  "packets dropped by queue, sum(packetBytes)"
scalar StaticHierarchical.host[0].wlan[0].mac 	"number of received packets" 	4568
scalar StaticHierarchical.host[0].wlan[0].mac 	"number of collisions" 	1788
scalar StaticHierarchical.host[0].wlan[0].mac 	"number of internal collisions" 	0
scalar StaticHierarchical.host[0].wlan[0].mac 	"number of retry for AC 0" 	228
scalar StaticHierarchical.host[0].wlan[0].mac 	"sent and received bits" 	6934160
scalar StaticHierarchical.host[0].wlan[0].mac 	"sent packet within AC 0" 	4561
scalar StaticHierarchical.host[0].wlan[0].mac 	"sent in TXOP " 	0
scalar StaticHierarchical.host[0].wlan[0].mac 	"sentWithoutRetry AC 0" 	4470
scalar StaticHierarchical.host[0].wlan[0].mac 	"numGivenUp AC 0" 	0
scalar StaticHierarchical.host[0].wlan[0].mac 	"numDropped AC 0" 	0
scalar StaticHierarchical.host[0].wlan[0].mac 	rcvdPkFromHL:count 	4567
attr interpolationmode  none
attr source  packetReceivedFromUpper
attr title  "packets received from higher layer, count"
scalar StaticHierarchical.host[0].wlan[0].mac 	rcvdPkFromHL:sum(packetBytes) 	866770
attr interpolationmode  none
attr source  packetReceivedFromUpper
attr title  "packets received from higher layer, sum(packetBytes)"
scalar StaticHierarchical.host[0].wlan[0].mac 	passedUpPk:count 	4614
attr interpolationmode  none
attr source  packetSentToUpper
attr title  "packets passed to higher layer, count"
scalar StaticHierarchical.host[0].wlan[0].mac 	passedUpPk:sum(packetBytes) 	870060
attr interpolationmode  none
attr source  packetSentToUpper
attr title  "packets passed to higher layer, sum(packetBytes)"
scalar StaticHierarchical.host[0].wlan[0].mac 	rcvdPkFromLL:count 	138944
attr interpolationmode  none
attr source  packetReceivedFromLower
attr title  "packets received from lower layer, count"
scalar StaticHierarchical.host[0].wlan[0].mac 	rcvdPkFromLL:sum(packetBytes) 	14299064
attr interpolationmode  none
attr source  packetReceivedFromLower
attr title  "packets received from lower layer, sum(packetBytes)"
scalar StaticHierarchical.host[0].wlan[0].mac 	sentDownPk:count 	9363
attr interpolationmode  none
attr source  packetSentToLower
attr title  "packets sent to lower layer, count"
scalar StaticHierarchical.host[0].wlan[0].mac 	sentDownPk:sum(packetBytes) 	974042
attr interpolationmode  none
attr source  packetSentToLower
attr title  "packets sent to lower layer, sum(packetBytes)"
scalar StaticHierarchical.host[0].wlan[0].radio 	lossRate:min 	0
attr interpolationmode  backward-sample-hold
attr title  "packet loss rate, min"
scalar StaticHierarchical.host[0].wlan[0].radio 	lossRate:max 	0.18
attr interpolationmode  backward-sample-hold
attr title  "packet loss rate, max"
scalar StaticHierarchical.host[0].wlan[0].radio 	lossRate:timeavg 	0.013043009440012
attr interpolationmode  backward-sample-hold
attr title  "packet loss rate, timeavg"
statistic StaticHierarchical.host[0].wlan[0].radio 	channelNo:histogram
field count 1
field mean 0
field stddev -nan
field sum 0
field sqrsum 0
field min 0
field max 0
attr interpolationmode  sample-hold
attr title  "channel no, histogram"
bin	-INF	0
bin	-0.5	0
bin	-0.46666666666667	0
bin	-0.43333333333333	0
bin	-0.4	0
bin	-0.36666666666667	0
bin	-0.33333333333333	0
bin	-0.3	0
bin	-0.26666666666667	0
bin	-0.23333333333333	0
bin	-0.2	0
bin	-0.16666666666667	0
bin	-0.13333333333333	0
bin	-0.1	0
bin	-0.066666666666667	0
bin	-0.033333333333333	0
bin	0	1
bin	0.033333333333333	0
bin	0.066666666666667	0
bin	0.1	0
bin	0.13333333333333	0
bin	0.16666666666667	0
bin	0.2	0
bin	0.23333333333333	0
bin	0.26666666666667	0
bin	0.3	0
bin	0.33333333333333	0
bin	0.36666666666667	0
bin	0.4	0
bin	0.43333333333333	0
bin	0.46666666666667	0
bin	0.5	0
scalar StaticHierarchical.host[0].wlan[0].radio 	bitrate:min 	11000000
attr interpolationmode  sample-hold
attr title  "tx bitrate, min"
attr unit  bps
scalar StaticHierarchical.host[0].wlan[0].radio 	bitrate:max 	11000000
attr interpolationmode  sample-hold
attr title  "tx bitrate, max"
attr unit  bps
scalar StaticHierarchical.host[0].wlan[0].radio 	bitrate:timeavg 	11000000
attr interpolationmode  sample-hold
attr title  "tx bitrate, timeavg"
attr unit  bps
scalar StaticHierarchical.host[0].wlan[0].radio 	radioState:count 	296802
attr interpolationmode  sample-hold
attr title  "radio state (enum), count"
scalar StaticHierarchical.host[0].pingApp[0] 	numOutOfOrderArrivals:last 	-nan
attr interpolationmode  none
attr title  "ping out-of-order arrivals, last"
scalar StaticHierarchical.host[0].pingApp[0] 	pingRxSeq:count 	0
attr interpolationmode  none
attr title  "ping rx seq, count"
scalar StaticHierarchical.host[0].pingApp[0] 	pingTxSeq:count 	0
attr interpolationmode  none
attr title  "ping tx seq, count"
scalar StaticHierarchical.host[0].pingApp[0] 	numLost:last 	-nan
attr interpolationmode  none
attr title  "pings lost, last"
statistic StaticHierarchical.host[0].pingApp[0] 	rtt:histogram
field count 0
field mean -nan
field stddev -nan
field sum 0
field sqrsum 0
field min -nan
field max -nan
attr interpolationmode  none
attr title  "ping round-trip time, histogram"
attr unit  s
bin	-INF	0
bin	-0.5	0
bin	-0.46666666666667	0
bin	-0.43333333333333	0
bin	-0.4	0
bin	-0.36666666666667	0
bin	-0.33333333333333	0
bin	-0.3	0
bin	-0.26666666666667	0
bin	-0.23333333333333	0
bin	-0.2	0
bin	-0.16666666666667	0
bin	-0.13333333333333	0
bin	-0.1	0
bin	-0.066666666666667	0
bin	-0.033333333333333	0
bin	0	0
bin	0.033333333333333	0
bin	0.066666666666667	0
bin	0.1	0
bin	0.13333333333333	0
bin	0.16666666666667	0
bin	0.2	0
bin	0.23333333333333	0
bin	0.26666666666667	0
bin	0.3	0
bin	0.33333333333333	0
bin	0.36666666666667	0
bin	0.4	0
bin	0.43333333333333	0
bin	0.46666666666667	0
bin	0.5	0
[...]
field max 0.953020094
attr interpolationmode  none
attr title  "ping round-trip time, histogram"
attr unit  s
bin	-INF	0
bin	-0.008947836	0
bin	-0.0074077842666667	0
bin	-0.0058677325333333	0
bin	-0.0043276808	0
bin	-0.0027876290666667	0
bin	-0.0012475773333333	0
bin	0.0002924744	0
bin	0.0018325261333333	1139
bin	0.0033725778666667	346
bin	0.0049126296	191
bin	0.0064526813333333	145
bin	0.0079927330666667	99
bin	0.0095327848	66
bin	0.011072836533333	61
bin	0.012612888266667	47
bin	0.01415294	35
bin	0.015692991733333	23
bin	0.017233043466667	25
bin	0.0187730952	13
bin	0.020313146933333	21
bin	0.021853198666667	16
bin	0.0233932504	9
bin	0.024933302133333	9
bin	0.026473353866667	2
bin	0.0280134056	4
bin	0.029553457333333	5
bin	0.031093509066667	2
bin	0.0326335608	2
bin	0.034173612533333	1
bin	0.035713664266667	1
bin	0.037253716	5
scalar StaticHierarchical.host[48].networkLayer.arp 	failedARPResolution:count 	0
attr title  "ARP failed resolutions, count"
scalar StaticHierarchical.host[48].networkLayer.arp 	completedARPResolution:count 	8
attr title  "ARP completed resolutions, count"
scalar StaticHierarchical.host[48].networkLayer.arp 	initiatedARPResolution:count 	2
attr title  "ARP initiated resolutions, count"
scalar StaticHierarchical.host[48].networkLayer.arp 	sentReply:count 	4
attr title  "ARP replies sent, count"
scalar StaticHierarchical.host[48].networkLayer.arp 	sentReq:count 	2
attr title  "ARP request sent, count"
scalar StaticHierarchical.host[48].lo0.lo 	droppedPkBitError:count 	0
attr interpolationmode  none
attr source  dropPkBitError
attr title  "packets dropped/bit error, count"
scalar StaticHierarchical.host[48].lo0.lo 	droppedPkBitError:sum(packetBytes) 	0
attr interpolationmode  none
attr source  dropPkBitError
attr title  "packets dropped/bit error, sum(packetBytes)"
scalar StaticHierarchical.host[48].lo0.lo 	rcvdPkFromHL:count 	0
attr interpolationmode  none
attr source  packetReceivedFromUpper
attr title  "packets received from higher layer, count"
scalar StaticHierarchical.host[48].lo0.lo 	rcvdPkFromHL:sum(packetBytes) 	0
attr interpolationmode  none
attr source  packetReceivedFromUpper
attr title  "packets received from higher layer, sum(packetBytes)"
scalar StaticHierarchical.host[48].lo0.lo 	passedUpPk:count 	0
attr interpolationmode  none
attr source  packetSentToUpper
attr title  "packets passed to higher layer, count"
scalar StaticHierarchical.host[48].lo0.lo 	passedUpPk:sum(packetBytes) 	0
attr interpolationmode  none
attr source  packetSentToUpper
attr title  "packets passed to higher layer, sum(packetBytes)"
scalar StaticHierarchical.host[48].wlan[0].mgmt 	dataQueueLen:max 	2
attr interpolationmode  sample-hold
attr title  "data queue length, max"
scalar StaticHierarchical.host[48].wlan[0].mgmt 	dataQueueLen:timeavg 	1.1578142222222e-05
attr interpolationmode  sample-hold
attr title  "data queue length, timeavg"
scalar StaticHierarchical.host[48].wlan[0].mgmt 	dropPkByQueue:count 	0
attr interpolationmode  none
attr source  dropPkByQueue
attr title  "packets dropped by queue, count"
scalar StaticHierarchical.host[48].wlan[0].mgmt 	dropPkByQueue:sum(packetBytes) 	0
attr interpolationmode  none
attr source  dropPkByQueue
attr title  "packets dropped by queue, sum(packetBytes)"
scalar StaticHierarchical.host[48].wlan[0].mac 	"number of received packets" 	4532
scalar StaticHierarchical.host[48].wlan[0].mac 	"number of collisions" 	639
scalar StaticHierarchical.host[48].wlan[0].mac 	"number of internal collisions" 	0
scalar StaticHierarchical.host[48].wlan[0].mac 	"number of retry for AC 0" 	290
scalar StaticHierarchical.host[48].wlan[0].mac 	"sent and received bits" 	6989280
scalar StaticHierarchical.host[48].wlan[0].mac 	"sent packet within AC 0" 	4600
scalar StaticHierarchical.host[48].wlan[0].mac 	"sent in TXOP " 	0
scalar StaticHierarchical.host[48].wlan[0].mac 	"sentWithoutRetry AC 0" 	4452
scalar StaticHierarchical.host[48].wlan[0].mac 	"numGivenUp AC 0" 	0
scalar StaticHierarchical.host[48].wlan[0].mac 	"numDropped AC 0" 	0
scalar StaticHierarchical.host[48].wlan[0].mac 	rcvdPkFromHL:count 	4602
attr interpolationmode  none
attr source  packetReceivedFromUpper
attr title  "packets received from higher layer, count"
scalar StaticHierarchical.host[48].wlan[0].mac 	rcvdPkFromHL:sum(packetBytes) 	873660
attr interpolationmode  none
attr source  packetReceivedFromUpper
attr title  "packets received from higher layer, sum(packetBytes)"
scalar StaticHierarchical.host[48].wlan[0].mac 	passedUpPk:count 	4543
attr interpolationmode  none
attr source  packetSentToUpper
attr title  "packets passed to higher layer, count"
scalar StaticHierarchical.host[48].wlan[0].mac 	passedUpPk:sum(packetBytes) 	861610
attr interpolationmode  none
attr source  packetSentToUpper
attr title  "packets passed to higher layer, sum(packetBytes)"
scalar StaticHierarchical.host[48].wlan[0].mac 	rcvdPkFromLL:count 	83773
attr interpolationmode  none
attr source  packetReceivedFromLower
attr title  "packets received from lower layer, count"
scalar StaticHierarchical.host[48].wlan[0].mac 	rcvdPkFromLL:sum(packetBytes) 	8688350
attr interpolationmode  none
attr source  packetReceivedFromLower
attr title  "packets received from lower layer, sum(packetBytes)"
scalar StaticHierarchical.host[48].wlan[0].mac 	sentDownPk:count 	9424
attr interpolationmode  none
attr source  packetSentToLower
attr title  "packets sent to lower layer, count"
scalar StaticHierarchical.host[48].wlan[0].mac 	sentDownPk:sum(packetBytes) 	992208
attr interpolationmode  none
attr source  packetSentToLower
attr title  "packets sent to lower layer, sum(packetBytes)"
scalar StaticHierarchical.host[48].wlan[0].radio 	lossRate:min 	0
attr interpolationmode  backward-sample-hold
attr title  "packet loss rate, min"
scalar StaticHierarchical.host[48].wlan[0].radio 	lossRate:max 	0.18
attr interpolationmode  backward-sample-hold
attr title  "packet loss rate, max"
scalar StaticHierarchical.host[48].wlan[0].radio 	lossRate:timeavg 	0.0075889884963485
attr interpolationmode  backward-sample-hold
attr title  "packet loss rate, timeavg"
statistic StaticHierarchical.host[48].wlan[0].radio 	channelNo:histogram
field count 1
field mean 4
field stddev -nan
field sum 4
field sqrsum 16
field min 4
field max 4
attr interpolationmode  sample-hold
attr title  "channel no, histogram"
bin	-INF	0
bin	3	0
bin	4	1
bin	5	0
scalar StaticHierarchical.host[48].wlan[0].radio 	bitrate:min 	11000000
attr interpolationmode  sample-hold
attr title  "tx bitrate, min"
attr unit  bps
scalar StaticHierarchical.host[48].wlan[0].radio 	bitrate:max 	11000000
attr interpolationmode  sample-hold
attr title  "tx bitrate, max"
attr unit  bps
scalar StaticHierarchical.host[48].wlan[0].radio 	bitrate:timeavg 	11000000
attr interpolationmode  sample-hold
attr title  "tx bitrate, timeavg"
attr unit  bps
scalar StaticHierarchical.host[48].wlan[0].radio 	radioState:count 	186761
attr interpolationmode  sample-hold
attr title  "radio state (enum), count"
scalar StaticHierarchical.host[48].pingApp[0] 	numOutOfOrderArrivals:last 	-nan
attr interpolationmode  none
attr title  "ping out-of-order arrivals, last"
scalar StaticHierarchical.host[48].pingApp[0] 	pingRxSeq:count 	0
attr interpolationmode  none
attr title  "ping rx seq, count"
scalar StaticHierarchical.host[48].pingApp[0] 	pingTxSeq:count 	0
attr interpolationmode  none
attr title  "ping tx seq, count"
scalar StaticHierarchical.host[48].pingApp[0] 	numLost:last 	-nan
attr interpolationmode  none
attr title  "pings lost, last"
statistic StaticHierarchical.host[48].pingApp[0] 	rtt:histogram
field count 0
field mean -nan
field stddev -nan
field sum 0
field sqrsum 0
field min -nan
field max -nan
attr interpolationmode  none
attr title  "ping round-trip time, histogram"
attr unit  s
bin	-INF	0
bin	-0.5	0
bin	-0.46666666666667	0
bin	-0.43333333333333	0
bin	-0.4	0
bin	-0.36666666666667	0
bin	-0.33333333333333	0
bin	-0.3	0
bin	-0.26666666666667	0
bin	-0.23333333333333	0
bin	-0.2	0
bin	-0.16666666666667	0
bin	-0.13333333333333	0
bin	-0.1	0
bin	-0.066666666666667	0
bin	-0.033333333333333	0
bin	0	0
bin	0.033333333333333	0
bin	0.066666666666667	0
bin	0.1	0
bin	0.13333333333333	0
bin	0.16666666666667	0
bin	0.2	0
bin	0.23333333333333	0
bin	0.26666666666667	0
bin	0.3	0
bin	0.33333333333333	0
bin	0.36666666666667	0
bin	0.4	0
bin	0.43333333333333	0
bin	0.46666666666667	0
bin	0.5	0
scalar StaticHierarchical.host[48].pingTestApp[0] 	"Pings sent" 	2300
scalar StaticHierarchical.host[48].pingTestApp[0] 	"ping loss rate (%)" 	2.8695652173913
scalar StaticHierarchical.host[48].pingTestApp[0] 	"ping out-of-order rate (%)" 	0
scalar StaticHierarchical.host[48].pingTestApp[0] 	numOutOfOrderArrivals:last 	-nan
attr interpolationmode  none
attr title  "ping out-of-order arrivals, last"
scalar StaticHierarchical.host[48].pingTestApp[0] 	pingRxSeq:count 	2234
attr interpolationmode  none
attr title  "ping rx seq, count"
scalar StaticHierarchical.host[48].pingTestApp[0] 	pingTxSeq:count 	2300
attr interpolationmode  none
attr title  "ping tx seq, count"
scalar StaticHierarchical.host[48].pingTestApp[0] 	numLost:last 	66
attr interpolationmode  none
attr title  "pings lost, last"
statistic StaticHierarchical.host[48].pingTestApp[0] 	rtt:histogram
field count 2234
field mean 0.018352112410922
field stddev 0.023762872144065
field sum 40.998619126
field sqrsum 2.013328515524
field min 0.008162547
field max 1.012649774
attr interpolationmode  none
attr title  "ping round-trip time, histogram"
attr unit  s
bin	-INF	0
bin	-0.0128019445	0
bin	-0.010005760166667	0
bin	-0.0072095758333333	0
bin	-0.0044133915	0
bin	-0.0016172071666667	0
bin	0.0011789771666667	0
bin	0.0039751615	0
bin	0.0067713458333333	676
bin	0.0095675301666667	300
bin	0.0123637145	207
bin	0.015159898833333	190
bin	0.017956083166667	175
bin	0.0207522675	138
bin	0.023548451833333	121
bin	0.026344636166667	77
bin	0.0291408205	79
bin	0.031937004833333	60
bin	0.034733189166667	53
bin	0.0375293735	50
bin	0.040325557833333	21
bin	0.043121742166667	26
bin	0.0459179265	16
bin	0.048714110833333	14
bin	0.051510295166667	8
bin	0.0543064795	5
bin	0.057102663833333	5
bin	0.059898848166667	7
bin	0.0626950325	4
bin	0.065491216833333	1
bin	0.068287401166667	0
bin	0.0710835855	1
scalar StaticHierarchical.host[49].networkLayer.arp 	failedARPResolution:count 	0
attr title  "ARP failed resolutions, count"
scalar StaticHierarchical.host[49].networkLayer.arp 	completedARPResolution:count 	40
attr title  "ARP completed resolutions, count"
scalar StaticHierarchical.host[49].networkLayer.arp 	initiatedARPResolution:count 	1
attr title  "ARP initiated resolutions, count"
scalar StaticHierarchical.host[49].networkLayer.arp 	sentReply:count 	11
attr title  "ARP replies sent, count"
scalar StaticHierarchical.host[49].networkLayer.arp 	sentReq:count 	1
attr title  "ARP request sent, count"
scalar StaticHierarchical.host[49].lo0.lo 	droppedPkBitError:count 	0
attr interpolationmode  none
attr source  dropPkBitError
attr title  "packets dropped/bit error, count"
scalar StaticHierarchical.host[49].lo0.lo 	droppedPkBitError:sum(packetBytes) 	0
attr interpolationmode  none
attr source  dropPkBitError
attr title  "packets dropped/bit error, sum(packetBytes)"
scalar StaticHierarchical.host[49].lo0.lo 	rcvdPkFromHL:count 	0
attr interpolationmode  none
attr source  packetReceivedFromUpper
attr title  "packets received from higher layer, count"
scalar StaticHierarchical.host[49].lo0.lo 	rcvdPkFromHL:sum(packetBytes) 	0
attr interpolationmode  none
attr source  packetReceivedFromUpper
attr title  "packets received from higher layer, sum(packetBytes)"
scalar StaticHierarchical.host[49].lo0.lo 	passedUpPk:count 	0
attr interpolationmode  none
attr source  packetSentToUpper
attr title  "packets passed to higher layer, count"
scalar StaticHierarchical.host[49].lo0.lo 	passedUpPk:sum(packetBytes) 	0
attr interpolationmode  none
attr source  packetSentToUpper
attr title  "packets passed to higher layer, sum(packetBytes)"
scalar StaticHierarchical.host[49].wlan[0].mgmt 	dataQueueLen:max 	0
attr interpolationmode  sample-hold
attr title  "data queue length, max"
scalar StaticHierarchical.host[49].wlan[0].mgmt 	dataQueueLen:timeavg 	0
attr interpolationmode  sample-hold
attr title  "data queue length, timeavg"
scalar StaticHierarchical.host[49].wlan[0].mgmt 	dropPkByQueue:count 	0
attr interpolationmode  none
attr source  dropPkByQueue
attr title  "packets dropped by queue, count"
scalar StaticHierarchical.host[49].wlan[0].mgmt 	dropPkByQueue:sum(packetBytes) 	0
attr interpolationmode  none
attr source  dropPkByQueue
attr title  "packets dropped by queue, sum(packetBytes)"
scalar StaticHierarchical.host[49].wlan[0].mac 	"number of received packets" 	4540
scalar StaticHierarchical.host[49].wlan[0].mac 	"number of collisions" 	969
scalar StaticHierarchical.host[49].wlan[0].mac 	"number of internal collisions" 	0
scalar StaticHierarchical.host[49].wlan[0].mac 	"number of retry for AC 0" 	319
scalar StaticHierarchical.host[49].wlan[0].mac 	"sent and received bits" 	7003280
scalar StaticHierarchical.host[49].wlan[0].mac 	"sent packet within AC 0" 	4614
scalar StaticHierarchical.host[49].wlan[0].mac 	"sent in TXOP " 	0
scalar StaticHierarchical.host[49].wlan[0].mac 	"sentWithoutRetry AC 0" 	4498
scalar StaticHierarchical.host[49].wlan[0].mac 	"numGivenUp AC 0" 	0
scalar StaticHierarchical.host[49].wlan[0].mac 	"numDropped AC 0" 	0
scalar StaticHierarchical.host[49].wlan[0].mac 	rcvdPkFromHL:count 	4615
attr interpolationmode  none
attr source  packetReceivedFromUpper
attr title  "packets received from higher layer, count"
scalar StaticHierarchical.host[49].wlan[0].mac 	rcvdPkFromHL:sum(packetBytes) 	875410
attr interpolationmode  none
attr source  packetReceivedFromUpper
attr title  "packets received from higher layer, sum(packetBytes)"
scalar StaticHierarchical.host[49].wlan[0].mac 	passedUpPk:count 	4583
attr interpolationmode  none
attr source  packetSentToUpper
attr title  "packets passed to higher layer, count"
scalar StaticHierarchical.host[49].wlan[0].mac 	passedUpPk:sum(packetBytes) 	863690
attr interpolationmode  none
attr source  packetSentToUpper
attr title  "packets passed to higher layer, sum(packetBytes)"
scalar StaticHierarchical.host[49].wlan[0].mac 	rcvdPkFromLL:count 	166129
attr interpolationmode  none
attr source  packetReceivedFromLower
attr title  "packets received from lower layer, count"
scalar StaticHierarchical.host[49].wlan[0].mac 	rcvdPkFromLL:sum(packetBytes) 	17050414
attr interpolationmode  none
attr source  packetReceivedFromLower
attr title  "packets received from lower layer, sum(packetBytes)"
scalar StaticHierarchical.host[49].wlan[0].mac 	sentDownPk:count 	9474
attr interpolationmode  none
attr source  packetSentToLower
attr title  "packets sent to lower layer, count"
scalar StaticHierarchical.host[49].wlan[0].mac 	sentDownPk:sum(packetBytes) 	999340
attr interpolationmode  none
attr source  packetSentToLower
attr title  "packets sent to lower layer, sum(packetBytes)"
scalar StaticHierarchical.host[49].wlan[0].radio 	lossRate:min 	0
attr interpolationmode  backward-sample-hold
attr title  "packet loss rate, min"
scalar StaticHierarchical.host[49].wlan[0].radio 	lossRate:max 	0.16
attr interpolationmode  backward-sample-hold
attr title  "packet loss rate, max"
scalar StaticHierarchical.host[49].wlan[0].radio 	lossRate:timeavg 	0.0059874598043711
attr interpolationmode  backward-sample-hold
attr title  "packet loss rate, timeavg"
statistic StaticHierarchical.host[49].wlan[0].radio 	channelNo:histogram
field count 1
field mean 4
field stddev -nan
field sum 4
field sqrsum 16
field min 4
field max 4
attr interpolationmode  sample-hold
attr title  "channel no, histogram"
bin	-INF	0
bin	3	0
bin	4	1
bin	5	0
scalar StaticHierarchical.host[49].wlan[0].radio 	bitrate:min 	11000000
attr interpolationmode  sample-hold
attr title  "tx bitrate, min"
attr unit  bps
scalar StaticHierarchical.host[49].wlan[0].radio 	bitrate:max 	11000000
attr interpolationmode  sample-hold
attr title  "tx bitrate, max"
attr unit  bps
scalar StaticHierarchical.host[49].wlan[0].radio 	bitrate:timeavg 	11000000
attr interpolationmode  sample-hold
attr title  "tx bitrate, timeavg"
attr unit  bps
scalar StaticHierarchical.host[49].wlan[0].radio 	radioState:count 	351318
attr interpolationmode  sample-hold
attr title  "radio state (enum), count"
scalar StaticHierarchical.host[49].pingApp[0] 	numOutOfOrderArrivals:last 	-nan
attr interpolationmode  none
attr title  "ping out-of-order arrivals, last"
scalar StaticHierarchical.host[49].pingApp[0] 	pingRxSeq:count 	0
attr interpolationmode  none
attr title  "ping rx seq, count"
scalar StaticHierarchical.host[49].pingApp[0] 	pingTxSeq:count 	0
attr interpolationmode  none
attr title  "ping tx seq, count"
scalar StaticHierarchical.host[49].pingApp[0] 	numLost:last 	-nan
attr interpolationmode  none
attr title  "pings lost, last"
statistic StaticHierarchical.host[49].pingApp[0] 	rtt:histogram
field count 0
field mean -nan
field stddev -nan
field sum 0
field sqrsum 0
field min -nan
field max -nan
attr interpolationmode  none
attr title  "ping round-trip time, histogram"
attr unit  s
bin	-INF	0
bin	-0.5	0
bin	-0.46666666666667	0
bin	-0.43333333333333	0
bin	-0.4	0
bin	-0.36666666666667	0
bin	-0.33333333333333	0
bin	-0.3	0
bin	-0.26666666666667	0
bin	-0.23333333333333	0
bin	-0.2	0
bin	-0.16666666666667	0
bin	-0.13333333333333	0
bin	-0.1	0
bin	-0.066666666666667	0
bin	-0.033333333333333	0
bin	0	0
bin	0.033333333333333	0
bin	0.066666666666667	0
bin	0.1	0
bin	0.13333333333333	0
bin	0.16666666666667	0
bin	0.2	0
bin	0.23333333333333	0
bin	0.26666666666667	0
bin	0.3	0
bin	0.33333333333333	0
bin	0.36666666666667	0
bin	0.4	0
bin	0.43333333333333	0
bin	0.46666666666667	0
bin	0.5	0
scalar StaticHierarchical.host[49].pingTestApp[0] 	"Pings sent" 	2302
scalar StaticHierarchical.host[49].pingTestApp[0] 	"ping loss rate (%)" 	3.4317984361425
scalar StaticHierarchical.host[49].pingTestApp[0] 	"ping out-of-order rate (%)" 	0
scalar StaticHierarchical.host[49].pingTestApp[0] 	numOutOfOrderArrivals:last 	-nan
attr interpolationmode  none
attr title  "ping out-of-order arrivals, last"
scalar StaticHierarchical.host[49].pingTestApp[0] 	pingRxSeq:count 	2223
attr interpolationmode  none
attr title  "ping rx seq, count"
scalar StaticHierarchical.host[49].pingTestApp[0] 	pingTxSeq:count 	2302
attr interpolationmode  none
attr title  "ping tx seq, count"
scalar StaticHierarchical.host[49].pingTestApp[0] 	numLost:last 	79
attr interpolationmode  none
attr title  "pings lost, last"
statistic StaticHierarchical.host[49].pingTestApp[0] 	rtt:histogram
field count 2223
field mean 0.017222079364822
field stddev 0.035974876971584
field sum 38.284682428
field sqrsum 3.535035959106
field min 0.006779064
field max 1.033524418
attr interpolationmode  none
attr title  "ping round-trip time, histogram"
attr unit  s
bin	-INF	0
bin	-0.0116361695	0
bin	-0.0091808050333333	0
bin	-0.0067254405666667	0
bin	-0.0042700761	0
bin	-0.0018147116333333	0
bin	0.00064065283333333	0
bin	0.0030960173	0
bin	0.0055513817666667	752
bin	0.0080067462333333	261
bin	0.0104621107	203
bin	0.012917475166667	169
bin	0.015372839633333	155
bin	0.0178282041	122
bin	0.020283568566667	100
bin	0.022738933033333	76
bin	0.0251942975	73
bin	0.027649661966667	54
bin	0.030105026433333	45
bin	0.0325603909	46
bin	0.035015755366667	25
bin	0.037471119833333	24
bin	0.0399264843	21
bin	0.042381848766667	19
bin	0.044837213233333	21
bin	0.0472925777	12
bin	0.049747942166667	13
bin	0.052203306633333	7
bin	0.0546586711	9
bin	0.057114035566667	3
bin	0.059569400033333	2
bin	0.0620247645	11
scalar StaticHierarchical.globalObserver.globalStatistics 	"GlobalStatistics: Simulation Time" 	900
scalar StaticHierarchical.globalObserver.globalStatistics 	"Vector: GlobalDhtTestMap: Number of stored DHT entries.mean" 	0
scalar StaticHierarchical.globalObserver.globalStatistics 	"Vector: GlobalNodeList: Number of nodes.mean" 	0
