version 2
run FourClustersStatic-0-20190412-11:11:53-4284
attr configname FourClustersStatic
attr datetime 20190412-11:11:53
attr experiment FourClustersStatic
attr inifile DHT-basedStatic.ini
attr iterationvars ""
attr iterationvars2 $repetition=0
attr measurement ""
attr network p2psipmanet.simulations.RyanStatic.StaticHierarchical
attr processid 4284
attr repetition 0
attr replication #0
attr resultdir results
attr runnumber 0
attr seedset 277735

scalar StaticHierarchical.gw[0].networkLayer.arp 	failedARPResolution:count 	0
attr title  "ARP failed resolutions, count"
scalar StaticHierarchical.gw[0].networkLayer.arp 	completedARPResolution:count 	89
attr title  "ARP completed resolutions, count"
scalar StaticHierarchical.gw[0].networkLayer.arp 	initiatedARPResolution:count 	49
attr title  "ARP initiated resolutions, count"
scalar StaticHierarchical.gw[0].networkLayer.arp 	sentReply:count 	13
attr title  "ARP replies sent, count"
scalar StaticHierarchical.gw[0].networkLayer.arp 	sentReq:count 	52
attr title  "ARP request sent, count"
scalar StaticHierarchical.gw[0].lo0.lo 	droppedPkBitError:count 	0
attr interpolationmode  none
attr source  dropPkBitError
attr title  "packets dropped/bit error, count"
scalar StaticHierarchical.gw[0].lo0.lo 	droppedPkBitError:sum(packetBytes) 	0
attr interpolationmode  none
attr source  dropPkBitError
attr title  "packets dropped/bit error, sum(packetBytes)"
scalar StaticHierarchical.gw[0].lo0.lo 	rcvdPkFromHL:count 	0
attr interpolationmode  none
attr source  packetReceivedFromUpper
attr title  "packets received from higher layer, count"
scalar StaticHierarchical.gw[0].lo0.lo 	rcvdPkFromHL:sum(packetBytes) 	0
attr interpolationmode  none
attr source  packetReceivedFromUpper
attr title  "packets received from higher layer, sum(packetBytes)"
scalar StaticHierarchical.gw[0].lo0.lo 	passedUpPk:count 	0
attr interpolationmode  none
attr source  packetSentToUpper
attr title  "packets passed to higher layer, count"
scalar StaticHierarchical.gw[0].lo0.lo 	passedUpPk:sum(packetBytes) 	0
attr interpolationmode  none
attr source  packetSentToUpper
attr title  "packets passed to higher layer, sum(packetBytes)"
scalar StaticHierarchical.gw[0].wlan[0].mgmt 	dataQueueLen:max 	4
attr interpolationmode  sample-hold
attr title  "data queue length, max"
scalar StaticHierarchical.gw[0].wlan[0].mgmt 	dataQueueLen:timeavg 	1.2068866666667e-05
attr interpolationmode  sample-hold
attr title  "data queue length, timeavg"
scalar StaticHierarchical.gw[0].wlan[0].mgmt 	dropPkByQueue:count 	0
attr interpolationmode  none
attr source  dropPkByQueue
attr title  "packets dropped by queue, count"
scalar StaticHierarchical.gw[0].wlan[0].mgmt 	dropPkByQueue:sum(packetBytes) 	0
attr interpolationmode  none
attr source  dropPkByQueue
attr title  "packets dropped by queue, sum(packetBytes)"
scalar StaticHierarchical.gw[0].wlan[0].mac 	"number of received packets" 	32211
scalar StaticHierarchical.gw[0].wlan[0].mac 	"number of collisions" 	815
scalar StaticHierarchical.gw[0].wlan[0].mac 	"number of internal collisions" 	0
scalar StaticHierarchical.gw[0].wlan[0].mac 	"number of retry for AC 0" 	25
scalar StaticHierarchical.gw[0].wlan[0].mac 	"sent and received bits" 	48683760
scalar StaticHierarchical.gw[0].wlan[0].mac 	"sent packet within AC 0" 	32017
scalar StaticHierarchical.gw[0].wlan[0].mac 	"sent in TXOP " 	0
scalar StaticHierarchical.gw[0].wlan[0].mac 	"sentWithoutRetry AC 0" 	31993
scalar StaticHierarchical.gw[0].wlan[0].mac 	"numGivenUp AC 0" 	0
scalar StaticHierarchical.gw[0].wlan[0].mac 	"numDropped AC 0" 	0
scalar StaticHierarchical.gw[0].wlan[0].mac 	rcvdPkFromHL:count 	32061
attr interpolationmode  none
attr source  packetReceivedFromUpper
attr title  "packets received from higher layer, count"
scalar StaticHierarchical.gw[0].wlan[0].mac 	rcvdPkFromHL:sum(packetBytes) 	6085470
attr interpolationmode  none
attr source  packetReceivedFromUpper
attr title  "packets received from higher layer, sum(packetBytes)"
scalar StaticHierarchical.gw[0].wlan[0].mac 	passedUpPk:count 	32232
attr interpolationmode  none
attr source  packetSentToUpper
attr title  "packets passed to higher layer, count"
scalar StaticHierarchical.gw[0].wlan[0].mac 	passedUpPk:sum(packetBytes) 	6115200
attr interpolationmode  none
attr source  packetSentToUpper
attr title  "packets passed to higher layer, sum(packetBytes)"
scalar StaticHierarchical.gw[0].wlan[0].mac 	rcvdPkFromLL:count 	101999
attr interpolationmode  none
attr source  packetReceivedFromLower
attr title  "packets received from lower layer, count"
scalar StaticHierarchical.gw[0].wlan[0].mac 	rcvdPkFromLL:sum(packetBytes) 	10485970
attr interpolationmode  none
attr source  packetReceivedFromLower
attr title  "packets received from lower layer, sum(packetBytes)"
scalar StaticHierarchical.gw[0].wlan[0].mac 	sentDownPk:count 	64297
attr interpolationmode  none
attr source  packetSentToLower
attr title  "packets sent to lower layer, count"
scalar StaticHierarchical.gw[0].wlan[0].mac 	sentDownPk:sum(packetBytes) 	6541174
attr interpolationmode  none
attr source  packetSentToLower
attr title  "packets sent to lower layer, sum(packetBytes)"
scalar StaticHierarchical.gw[0].wlan[0].radio 	lossRate:min 	0
attr interpolationmode  backward-sample-hold
attr title  "packet loss rate, min"
scalar StaticHierarchical.gw[0].wlan[0].radio 	lossRate:max 	0.18
attr interpolationmode  backward-sample-hold
attr title  "packet loss rate, max"
scalar StaticHierarchical.gw[0].wlan[0].radio 	lossRate:timeavg 	0.0079455208866722
attr interpolationmode  backward-sample-hold
attr title  "packet loss rate, timeavg"
statistic StaticHierarchical.gw[0].wlan[0].radio 	channelNo:histogram
field count 1
field mean 0
field stddev -nan
field sum 0
field sqrsum 0
field min 0
field max 0
attr interpolationmode  sample-hold
attr title  "channel no, histogram"
bin	-INF	0
bin	-0.5	0
bin	-0.46666666666667	0
bin	-0.43333333333333	0
bin	-0.4	0
bin	-0.36666666666667	0
bin	-0.33333333333333	0
bin	-0.3	0
bin	-0.26666666666667	0
bin	-0.23333333333333	0
bin	-0.2	0
bin	-0.16666666666667	0
bin	-0.13333333333333	0
bin	-0.1	0
bin	-0.066666666666667	0
bin	-0.033333333333333	0
bin	0	1
bin	0.033333333333333	0
bin	0.066666666666667	0
bin	0.1	0
bin	0.13333333333333	0
bin	0.16666666666667	0
bin	0.2	0
bin	0.23333333333333	0
bin	0.26666666666667	0
bin	0.3	0
bin	0.33333333333333	0
bin	0.36666666666667	0
bin	0.4	0
bin	0.43333333333333	0
bin	0.46666666666667	0
bin	0.5	0
scalar StaticHierarchical.gw[0].wlan[0].radio 	bitrate:min 	11000000
attr interpolationmode  sample-hold
attr title  "tx bitrate, min"
attr unit  bps
scalar StaticHierarchical.gw[0].wlan[0].radio 	bitrate:max 	11000000
attr interpolationmode  sample-hold
attr title  "tx bitrate, max"
attr unit  bps
scalar StaticHierarchical.gw[0].wlan[0].radio 	bitrate:timeavg 	11000000
attr interpolationmode  sample-hold
attr title  "tx bitrate, timeavg"
attr unit  bps
scalar StaticHierarchical.gw[0].wlan[0].radio 	radioState:count 	332535
attr interpolationmode  sample-hold
attr title  "radio state (enum), count"
scalar StaticHierarchical.gw[0].wlan[1].mgmt 	dataQueueLen:max 	10
attr interpolationmode  sample-hold
attr title  "data queue length, max"
scalar StaticHierarchical.gw[0].wlan[1].mgmt 	dataQueueLen:timeavg 	0.0024652210877778
attr interpolationmode  sample-hold
attr title  "data queue length, timeavg"
scalar StaticHierarchical.gw[0].wlan[1].mgmt 	dropPkByQueue:count 	67
attr interpolationmode  none
attr source  dropPkByQueue
attr title  "packets dropped by queue, count"
scalar StaticHierarchical.gw[0].wlan[1].mgmt 	dropPkByQueue:sum(packetBytes) 	12730
attr interpolationmode  none
attr source  dropPkByQueue
attr title  "packets dropped by queue, sum(packetBytes)"
scalar StaticHierarchical.gw[0].wlan[1].mac 	"number of received packets" 	32050
scalar StaticHierarchical.gw[0].wlan[1].mac 	"number of collisions" 	1511
scalar StaticHierarchical.gw[0].wlan[1].mac 	"number of internal collisions" 	0
scalar StaticHierarchical.gw[0].wlan[1].mac 	"number of retry for AC 0" 	21759
scalar StaticHierarchical.gw[0].wlan[1].mac 	"sent and received bits" 	48587040
scalar StaticHierarchical.gw[0].wlan[1].mac 	"sent packet within AC 0" 	31966
scalar StaticHierarchical.gw[0].wlan[1].mac 	"sent in TXOP " 	0
scalar StaticHierarchical.gw[0].wlan[1].mac 	"sentWithoutRetry AC 0" 	24259
scalar StaticHierarchical.gw[0].wlan[1].mac 	"numGivenUp AC 0" 	131
scalar StaticHierarchical.gw[0].wlan[1].mac 	"numDropped AC 0" 	0
scalar StaticHierarchical.gw[0].wlan[1].mac 	rcvdPkFromHL:count 	32105
attr interpolationmode  none
attr source  packetReceivedFromUpper
attr title  "packets received from higher layer, count"
scalar StaticHierarchical.gw[0].wlan[1].mac 	rcvdPkFromHL:sum(packetBytes) 	6098270
attr interpolationmode  none
attr source  packetReceivedFromUpper
attr title  "packets received from higher layer, sum(packetBytes)"
scalar StaticHierarchical.gw[0].wlan[1].mac 	passedUpPk:count 	32029
attr interpolationmode  none
attr source  packetSentToUpper
attr title  "packets passed to higher layer, count"
scalar StaticHierarchical.gw[0].wlan[1].mac 	passedUpPk:sum(packetBytes) 	6083230
attr interpolationmode  none
attr source  packetSentToUpper
attr title  "packets passed to higher layer, sum(packetBytes)"
scalar StaticHierarchical.gw[0].wlan[1].mac 	rcvdPkFromLL:count 	173429
attr interpolationmode  none
attr source  packetReceivedFromLower
attr title  "packets received from lower layer, count"
scalar StaticHierarchical.gw[0].wlan[1].mac 	rcvdPkFromLL:sum(packetBytes) 	19260462
attr interpolationmode  none
attr source  packetReceivedFromLower
attr title  "packets received from lower layer, sum(packetBytes)"
scalar StaticHierarchical.gw[0].wlan[1].mac 	sentDownPk:count 	85914
attr interpolationmode  none
attr source  packetSentToLower
attr title  "packets sent to lower layer, count"
scalar StaticHierarchical.gw[0].wlan[1].mac 	sentDownPk:sum(packetBytes) 	10681180
attr interpolationmode  none
attr source  packetSentToLower
attr title  "packets sent to lower layer, sum(packetBytes)"
scalar StaticHierarchical.gw[0].wlan[1].radio 	lossRate:min 	0
attr interpolationmode  backward-sample-hold
attr title  "packet loss rate, min"
scalar StaticHierarchical.gw[0].wlan[1].radio 	lossRate:max 	0.08
attr interpolationmode  backward-sample-hold
attr title  "packet loss rate, max"
scalar StaticHierarchical.gw[0].wlan[1].radio 	lossRate:timeavg 	0.0087928314467684
attr interpolationmode  backward-sample-hold
attr title  "packet loss rate, timeavg"
statistic StaticHierarchical.gw[0].wlan[1].radio 	channelNo:histogram
field count 1
field mean 5
field stddev -nan
field sum 5
field sqrsum 25
field min 5
field max 5
attr interpolationmode  sample-hold
attr title  "channel no, histogram"
bin	-INF	0
bin	4	0
bin	5	1
bin	6	0
scalar StaticHierarchical.gw[0].wlan[1].radio 	bitrate:min 	11000000
attr interpolationmode  sample-hold
attr title  "tx bitrate, min"
attr unit  bps
scalar StaticHierarchical.gw[0].wlan[1].radio 	bitrate:max 	11000000
attr interpolationmode  sample-hold
attr title  "tx bitrate, max"
attr unit  bps
scalar StaticHierarchical.gw[0].wlan[1].radio 	bitrate:timeavg 	11000000
attr interpolationmode  sample-hold
attr title  "tx bitrate, timeavg"
attr unit  bps
scalar StaticHierarchical.gw[0].wlan[1].radio 	radioState:count 	519300
attr interpolationmode  sample-hold
attr title  "radio state (enum), count"
scalar StaticHierarchical.gw[0].udp 	droppedPkBadChecksum:count 	0
attr interpolationmode  none
attr title  "packets dropped (checksum error), count"
scalar StaticHierarchical.gw[0].udp 	droppedPkWrongPort:count 	0
attr interpolationmode  none
attr title  "packets dropped (wrong port), count"
scalar StaticHierarchical.gw[0].udp 	passedUpPk:count 	0
attr interpolationmode  none
attr title  "packets passed up, count"
scalar StaticHierarchical.gw[0].udp 	rcvdPk:count 	0
attr interpolationmode  none
attr source  rcvdPk
attr title  "packets received, count"
scalar StaticHierarchical.gw[0].udp 	rcvdPk:sum(packetBytes) 	0
attr interpolationmode  none
attr source  rcvdPk
attr title  "packets received, sum(packetBytes)"
scalar StaticHierarchical.gw[0].udp 	sentPk:count 	0
attr interpolationmode  none
attr source  sentPk
attr title  "packets sent, count"
scalar StaticHierarchical.gw[0].udp 	sentPk:sum(packetBytes) 	0
attr interpolationmode  none
attr source  sentPk
attr title  "packets sent, sum(packetBytes)"
scalar StaticHierarchical.gw[0].pingApp[0] 	numOutOfOrderArrivals:last 	-nan
attr interpolationmode  none
attr title  "ping out-of-order arrivals, last"
scalar StaticHierarchical.gw[0].pingApp[0] 	pingRxSeq:count 	0
attr interpolationmode  none
attr title  "ping rx seq, count"
scalar StaticHierarchical.gw[0].pingApp[0] 	pingTxSeq:count 	0
attr interpolationmode  none
attr title  "ping tx seq, count"
scalar StaticHierarchical.gw[0].pingApp[0] 	numLost:last 	-nan
attr interpolationmode  none
attr title  "pings lost, last"
statistic StaticHierarchical.gw[0].pingApp[0] 	rtt:histogram
field count 0
field mean -nan
field stddev -nan
field sum 0
field sqrsum 0
field min -nan
field max -nan
attr interpolationmode  none
attr title  "ping round-trip time, histogram"
attr unit  s
bin	-INF	0
bin	-0.5	0
bin	-0.46666666666667	0
bin	-0.43333333333333	0
bin	-0.4	0
bin	-0.36666666666667	0
bin	-0.33333333333333	0
bin	-0.3	0
bin	-0.26666666666667	0
bin	-0.23333333333333	0
bin	-0.2	0
bin	-0.16666666666667	0
bin	-0.13333333333333	0
bin	-0.1	0
bin	-0.066666666666667	0
bin	-0.033333333333333	0
bin	0	0
bin	0.033333333333333	0
bin	0.066666666666667	0
bin	0.1	0
bin	0.13333333333333	0
bin	0.16666666666667	0
bin	0.2	0
bin	0.23333333333333	0
bin	0.26666666666667	0
bin	0.3	0
bin	0.33333333333333	0
bin	0.36666666666667	0
bin	0.4	0
bin	0.43333333333333	0
bin	0.46666666666667	0
bin	0.5	0
scalar StaticHierarchical.gw[0].pingTestApp[0] 	numOutOfOrderArrivals:last 	-nan
attr interpolationmode  none
attr title  "ping out-of-order arrivals, last"
scalar StaticHierarchical.gw[0].pingTestApp[0] 	pingRxSeq:count 	0
attr interpolationmode  none
attr title  "ping rx seq, count"
scalar StaticHierarchical.gw[0].pingTestApp[0] 	pingTxSeq:count 	0
attr interpolationmode  none
attr title  "ping tx seq, count"
scalar StaticHierarchical.gw[0].pingTestApp[0] 	numLost:last 	-nan
attr interpolationmode  none
attr title  "pings lost, last"
statistic StaticHierarchical.gw[0].pingTestApp[0] 	rtt:histogram
field count 0
field mean -nan
field stddev -nan
field sum 0
field sqrsum 0
field min -nan
field max -nan
attr interpolationmode  none
attr title  "ping round-trip time, histogram"
attr unit  s
bin	-INF	0
bin	-0.5	0
bin	-0.46666666666667	0
bin	-0.43333333333333	0
bin	-0.4	0
bin	-0.36666666666667	0
bin	-0.33333333333333	0
bin	-0.3	0
bin	-0.26666666666667	0
bin	-0.23333333333333	0
bin	-0.2	0
bin	-0.16666666666667	0
bin	-0.13333333333333	0
bin	-0.1	0
bin	-0.066666666666667	0
bin	-0.033333333333333	0
bin	0	0
bin	0.033333333333333	0
bin	0.066666666666667	0
bin	0.1	0
bin	0.13333333333333	0
bin	0.16666666666667	0
bin	0.2	0
bin	0.23333333333333	0
bin	0.26666666666667	0
bin	0.3	0
bin	0.33333333333333	0
bin	0.36666666666667	0
bin	0.4	0
bin	0.43333333333333	0
bin	0.46666666666667	0
bin	0.5	0
scalar StaticHierarchical.gw[1].networkLayer.arp 	failedARPResolution:count 	0
attr title  "ARP failed resolutions, count"
scalar StaticHierarchical.gw[1].networkLayer.arp 	completedARPResolution:count 	98
attr title  "ARP completed resolutions, count"
scalar StaticHierarchical.gw[1].networkLayer.arp 	initiatedARPResolution:count 	41
attr title  "ARP initiated resolutions, count"
scalar StaticHierarchical.gw[1].networkLayer.arp 	sentReply:count 	17
attr title  "ARP replies sent, count"
scalar StaticHierarchical.gw[1].networkLayer.arp 	sentReq:count 	42
attr title  "ARP request sent, count"
scalar StaticHierarchical.gw[1].lo0.lo 	droppedPkBitError:count 	0
attr interpolationmode  none
attr source  dropPkBitError
attr title  "packets dropped/bit error, count"
scalar StaticHierarchical.gw[1].lo0.lo 	droppedPkBitError:sum(packetBytes) 	0
attr interpolationmode  none
attr source  dropPkBitError
attr title  "packets dropped/bit error, sum(packetBytes)"
scalar StaticHierarchical.gw[1].lo0.lo 	rcvdPkFromHL:count 	0
attr interpolationmode  none
attr source  packetReceivedFromUpper
attr title  "packets received from higher layer, count"
scalar StaticHierarchical.gw[1].lo0.lo 	rcvdPkFromHL:sum(packetBytes) 	0
attr interpolationmode  none
attr source  packetReceivedFromUpper
attr title  "packets received from higher layer, sum(packetBytes)"
scalar StaticHierarchical.gw[1].lo0.lo 	passedUpPk:count 	0
attr interpolationmode  none
attr source  packetSentToUpper
attr title  "packets passed to higher layer, count"
scalar StaticHierarchical.gw[1].lo0.lo 	passedUpPk:sum(packetBytes) 	0
attr interpolationmode  none
attr source  packetSentToUpper
attr title  "packets passed to higher layer, sum(packetBytes)"
scalar StaticHierarchical.gw[1].wlan[0].mgmt 	dataQueueLen:max 	1
attr interpolationmode  sample-hold
attr title  "data queue length, max"
scalar StaticHierarchical.gw[1].wlan[0].mgmt 	dataQueueLen:timeavg 	6.9156666666667e-07
attr interpolationmode  sample-hold
attr title  "data queue length, timeavg"
scalar StaticHierarchical.gw[1].wlan[0].mgmt 	dropPkByQueue:count 	0
attr interpolationmode  none
attr source  dropPkByQueue
attr title  "packets dropped by queue, count"
scalar StaticHierarchical.gw[1].wlan[0].mgmt 	dropPkByQueue:sum(packetBytes) 	0
attr interpolationmode  none
attr source  dropPkByQueue
attr title  "packets dropped by queue, sum(packetBytes)"
scalar StaticHierarchical.gw[1].wlan[0].mac 	"number of received packets" 	32180
scalar StaticHierarchical.gw[1].wlan[0].mac 	"number of collisions" 	1590
scalar StaticHierarchical.gw[1].wlan[0].mac 	"number of internal collisions" 	0
scalar StaticHierarchical.gw[1].wlan[0].mac 	"number of retry for AC 0" 	174
scalar StaticHierarchical.gw[1].wlan[0].mac 	"sent and received bits" 	48753280
scalar StaticHierarchical.gw[1].wlan[0].mac 	"sent packet within AC 0" 	32067
scalar StaticHierarchical.gw[1].wlan[0].mac 	"sent in TXOP " 	0
scalar StaticHierarchical.gw[1].wlan[0].mac 	"sentWithoutRetry AC 0" 	31941
scalar StaticHierarchical.gw[1].wlan[0].mac 	"numGivenUp AC 0" 	0
scalar StaticHierarchical.gw[1].wlan[0].mac 	"numDropped AC 0" 	0
scalar StaticHierarchical.gw[1].wlan[0].mac 	rcvdPkFromHL:count 	32096
attr interpolationmode  none
attr source  packetReceivedFromUpper
attr title  "packets received from higher layer, count"
scalar StaticHierarchical.gw[1].wlan[0].mac 	rcvdPkFromHL:sum(packetBytes) 	6094160
attr interpolationmode  none
attr source  packetReceivedFromUpper
attr title  "packets received from higher layer, sum(packetBytes)"
scalar StaticHierarchical.gw[1].wlan[0].mac 	passedUpPk:count 	32217
attr interpolationmode  none
attr source  packetSentToUpper
attr title  "packets passed to higher layer, count"
scalar StaticHierarchical.gw[1].wlan[0].mac 	passedUpPk:sum(packetBytes) 	6112710
attr interpolationmode  none
attr source  packetSentToUpper
attr title  "packets passed to higher layer, sum(packetBytes)"
scalar StaticHierarchical.gw[1].wlan[0].mac 	rcvdPkFromLL:count 	130015
attr interpolationmode  none
attr source  packetReceivedFromLower
attr title  "packets received from lower layer, count"
scalar StaticHierarchical.gw[1].wlan[0].mac 	rcvdPkFromLL:sum(packetBytes) 	13378666
attr interpolationmode  none
attr source  packetReceivedFromLower
attr title  "packets received from lower layer, sum(packetBytes)"
scalar StaticHierarchical.gw[1].wlan[0].mac 	sentDownPk:count 	64450
attr interpolationmode  none
attr source  packetSentToLower
attr title  "packets sent to lower layer, count"
scalar StaticHierarchical.gw[1].wlan[0].mac 	sentDownPk:sum(packetBytes) 	6577740
attr interpolationmode  none
attr source  packetSentToLower
attr title  "packets sent to lower layer, sum(packetBytes)"
scalar StaticHierarchical.gw[1].wlan[0].radio 	lossRate:min 	0
attr interpolationmode  backward-sample-hold
attr title  "packet loss rate, min"
scalar StaticHierarchical.gw[1].wlan[0].radio 	lossRate:max 	0.22
attr interpolationmode  backward-sample-hold
attr title  "packet loss rate, max"
scalar StaticHierarchical.gw[1].wlan[0].radio 	lossRate:timeavg 	0.012301821507628
attr interpolationmode  backward-sample-hold
attr title  "packet loss rate, timeavg"
statistic StaticHierarchical.gw[1].wlan[0].radio 	channelNo:histogram
field count 1
field mean 1
field stddev -nan
field sum 1
field sqrsum 1
field min 1
field max 1
attr interpolationmode  sample-hold
attr title  "channel no, histogram"
bin	-INF	0
bin	0	0
bin	1	1
bin	2	0
scalar StaticHierarchical.gw[1].wlan[0].radio 	bitrate:min 	11000000
attr interpolationmode  sample-hold
attr title  "tx bitrate, min"
attr unit  bps
scalar StaticHierarchical.gw[1].wlan[0].radio 	bitrate:max 	11000000
attr interpolationmode  sample-hold
attr title  "tx bitrate, max"
attr unit  bps
scalar StaticHierarchical.gw[1].wlan[0].radio 	bitrate:timeavg 	11000000
attr interpolationmode  sample-hold
attr title  "tx bitrate, timeavg"
attr unit  bps
scalar StaticHierarchical.gw[1].wlan[0].radio 	radioState:count 	388693
attr interpolationmode  sample-hold
attr title  "radio state (enum), count"
scalar StaticHierarchical.gw[1].wlan[1].mgmt 	dataQueueLen:max 	10
attr interpolationmode  sample-hold
attr title  "data queue length, max"
scalar StaticHierarchical.gw[1].wlan[1].mgmt 	dataQueueLen:timeavg 	0.0062483436577778
attr interpolationmode  sample-hold
attr title  "data queue length, timeavg"
scalar StaticHierarchical.gw[1].wlan[1].mgmt 	dropPkByQueue:count 	58
attr interpolationmode  none
attr source  dropPkByQueue
attr title  "packets dropped by queue, count"
scalar StaticHierarchical.gw[1].wlan[1].mgmt 	dropPkByQueue:sum(packetBytes) 	11020
attr interpolationmode  none
attr source  dropPkByQueue
attr title  "packets dropped by queue, sum(packetBytes)"
scalar StaticHierarchical.gw[1].wlan[1].mac 	"number of received packets" 	77843
scalar StaticHierarchical.gw[1].wlan[1].mac 	"number of collisions" 	23965
scalar StaticHierarchical.gw[1].wlan[1].mac 	"number of internal collisions" 	0
scalar StaticHierarchical.gw[1].wlan[1].mac 	"number of retry for AC 0" 	17977
scalar StaticHierarchical.gw[1].wlan[1].mac 	"sent and received bits" 	118127120
scalar StaticHierarchical.gw[1].wlan[1].mac 	"sent packet within AC 0" 	77718
scalar StaticHierarchical.gw[1].wlan[1].mac 	"sent in TXOP " 	0
scalar StaticHierarchical.gw[1].wlan[1].mac 	"sentWithoutRetry AC 0" 	69643
scalar StaticHierarchical.gw[1].wlan[1].mac 	"numGivenUp AC 0" 	34
scalar StaticHierarchical.gw[1].wlan[1].mac 	"numDropped AC 0" 	0
scalar StaticHierarchical.gw[1].wlan[1].mac 	rcvdPkFromHL:count 	77765
attr interpolationmode  none
attr source  packetReceivedFromUpper
attr title  "packets received from higher layer, count"
scalar StaticHierarchical.gw[1].wlan[1].mac 	rcvdPkFromHL:sum(packetBytes) 	14772350
attr interpolationmode  none
attr source  packetReceivedFromUpper
attr title  "packets received from higher layer, sum(packetBytes)"
scalar StaticHierarchical.gw[1].wlan[1].mac 	passedUpPk:count 	77744
attr interpolationmode  none
attr source  packetSentToUpper
attr title  "packets passed to higher layer, count"
scalar StaticHierarchical.gw[1].wlan[1].mac 	passedUpPk:sum(packetBytes) 	14767760
attr interpolationmode  none
attr source  packetSentToUpper
attr title  "packets passed to higher layer, sum(packetBytes)"
scalar StaticHierarchical.gw[1].wlan[1].mac 	rcvdPkFromLL:count 	253052
attr interpolationmode  none
attr source  packetReceivedFromLower
attr title  "packets received from lower layer, count"
scalar StaticHierarchical.gw[1].wlan[1].mac 	rcvdPkFromLL:sum(packetBytes) 	27987368
attr interpolationmode  none
attr source  packetReceivedFromLower
attr title  "packets received from lower layer, sum(packetBytes)"
scalar StaticHierarchical.gw[1].wlan[1].mac 	sentDownPk:count 	173585
attr interpolationmode  none
attr source  packetSentToLower
attr title  "packets sent to lower layer, count"
scalar StaticHierarchical.gw[1].wlan[1].mac 	sentDownPk:sum(packetBytes) 	19277782
attr interpolationmode  none
attr source  packetSentToLower
attr title  "packets sent to lower layer, sum(packetBytes)"
scalar StaticHierarchical.gw[1].wlan[1].radio 	lossRate:min 	0
attr interpolationmode  backward-sample-hold
attr title  "packet loss rate, min"
scalar StaticHierarchical.gw[1].wlan[1].radio 	lossRate:max 	0.46
attr interpolationmode  backward-sample-hold
attr title  "packet loss rate, max"
scalar StaticHierarchical.gw[1].wlan[1].radio 	lossRate:timeavg 	0.097490315276865
attr interpolationmode  backward-sample-hold
attr title  "packet loss rate, timeavg"
statistic StaticHierarchical.gw[1].wlan[1].radio 	channelNo:histogram
field count 1
field mean 5
field stddev -nan
field sum 5
field sqrsum 25
field min 5
field max 5
attr interpolationmode  sample-hold
attr title  "channel no, histogram"
bin	-INF	0
bin	4	0
bin	5	1
bin	6	0
scalar StaticHierarchical.gw[1].wlan[1].radio 	bitrate:min 	11000000
attr interpolationmode  sample-hold
attr title  "tx bitrate, min"
attr unit  bps
scalar StaticHierarchical.gw[1].wlan[1].radio 	bitrate:max 	11000000
attr interpolationmode  sample-hold
attr title  "tx bitrate, max"
attr unit  bps
scalar StaticHierarchical.gw[1].wlan[1].radio 	bitrate:timeavg 	11000000
attr interpolationmode  sample-hold
attr title  "tx bitrate, timeavg"
attr unit  bps
scalar StaticHierarchical.gw[1].wlan[1].radio 	radioState:count 	852239
attr interpolationmode  sample-hold
attr title  "radio state (enum), count"
scalar StaticHierarchical.gw[1].udp 	droppedPkBadChecksum:count 	0
attr interpolationmode  none
attr title  "packets dropped (checksum error), count"
scalar StaticHierarchical.gw[1].udp 	droppedPkWrongPort:count 	0
attr interpolationmode  none
attr title  "packets dropped (wrong port), count"
scalar StaticHierarchical.gw[1].udp 	passedUpPk:count 	0
attr interpolationmode  none
attr title  "packets passed up, count"
scalar StaticHierarchical.gw[1].udp 	rcvdPk:count 	0
attr interpolationmode  none
attr source  rcvdPk
attr title  "packets received, count"
scalar StaticHierarchical.gw[1].udp 	rcvdPk:sum(packetBytes) 	0
attr interpolationmode  none
attr source  rcvdPk
attr title  "packets received, sum(packetBytes)"
scalar StaticHierarchical.gw[1].udp 	sentPk:count 	0
attr interpolationmode  none
attr source  sentPk
attr title  "packets sent, count"
scalar StaticHierarchical.gw[1].udp 	sentPk:sum(packetBytes) 	0
attr interpolationmode  none
attr source  sentPk
attr title  "packets sent, sum(packetBytes)"
scalar StaticHierarchical.gw[1].pingApp[0] 	numOutOfOrderArrivals:last 	-nan
attr interpolationmode  none
attr title  "ping out-of-order arrivals, last"
scalar StaticHierarchical.gw[1].pingApp[0] 	pingRxSeq:count 	0
attr interpolationmode  none
attr title  "ping rx seq, count"
scalar StaticHierarchical.gw[1].pingApp[0] 	pingTxSeq:count 	0
attr interpolationmode  none
attr title  "ping tx seq, count"
scalar StaticHierarchical.gw[1].pingApp[0] 	numLost:last 	-nan
attr interpolationmode  none
attr title  "pings lost, last"
statistic StaticHierarchical.gw[1].pingApp[0] 	rtt:histogram
field count 0
field mean -nan
field stddev -nan
field sum 0
field sqrsum 0
field min -nan
field max -nan
attr interpolationmode  none
attr title  "ping round-trip time, histogram"
attr unit  s
bin	-INF	0
bin	-0.5	0
bin	-0.46666666666667	0
bin	-0.43333333333333	0
bin	-0.4	0
bin	-0.36666666666667	0
bin	-0.33333333333333	0
bin	-0.3	0
bin	-0.26666666666667	0
bin	-0.23333333333333	0
bin	-0.2	0
bin	-0.16666666666667	0
bin	-0.13333333333333	0
bin	-0.1	0
bin	-0.066666666666667	0
bin	-0.033333333333333	0
bin	0	0
bin	0.033333333333333	0
bin	0.066666666666667	0
bin	0.1	0
bin	0.13333333333333	0
bin	0.16666666666667	0
bin	0.2	0
bin	0.23333333333333	0
bin	0.26666666666667	0
bin	0.3	0
bin	0.33333333333333	0
bin	0.36666666666667	0
bin	0.4	0
bin	0.43333333333333	0
bin	0.46666666666667	0
bin	0.5	0
scalar StaticHierarchical.gw[1].pingTestApp[0] 	numOutOfOrderArrivals:last 	-nan
attr interpolationmode  none
attr title  "ping out-of-order arrivals, last"
scalar StaticHierarchical.gw[1].pingTestApp[0] 	pingRxSeq:count 	0
attr interpolationmode  none
attr title  "ping rx seq, count"
scalar StaticHierarchical.gw[1].pingTestApp[0] 	pingTxSeq:count 	0
attr interpolationmode  none
attr title  "ping tx seq, count"
scalar StaticHierarchical.gw[1].pingTestApp[0] 	numLost:last 	-nan
attr interpolationmode  none
attr title  "pings lost, last"
statistic StaticHierarchical.gw[1].pingTestApp[0] 	rtt:histogram
field count 0
field mean -nan
field stddev -nan
field sum 0
field sqrsum 0
field min -nan
field max -nan
attr interpolationmode  none
attr title  "ping round-trip time, histogram"
attr unit  s
bin	-INF	0
bin	-0.5	0
bin	-0.46666666666667	0
bin	-0.43333333333333	0
bin	-0.4	0
bin	-0.36666666666667	0
bin	-0.33333333333333	0
bin	-0.3	0
bin	-0.26666666666667	0
bin	-0.23333333333333	0
bin	-0.2	0
bin	-0.16666666666667	0
bin	-0.13333333333333	0
bin	-0.1	0
bin	-0.066666666666667	0
bin	-0.033333333333333	0
bin	0	0
bin	0.033333333333333	0
bin	0.066666666666667	0
bin	0.1	0
bin	0.13333333333333	0
bin	0.16666666666667	0
bin	0.2	0
bin	0.23333333333333	0
bin	0.26666666666667	0
bin	0.3	0
bin	0.33333333333333	0
bin	0.36666666666667	0
bin	0.4	0
bin	0.43333333333333	0
bin	0.46666666666667	0
bin	0.5	0
scalar StaticHierarchical.gw[2].networkLayer.arp 	failedARPResolution:count 	0
attr title  "ARP failed resolutions, count"
scalar StaticHierarchical.gw[2].networkLayer.arp 	completedARPResolution:count 	93
attr title  "ARP completed resolutions, count"
scalar StaticHierarchical.gw[2].networkLayer.arp 	initiatedARPResolution:count 	56
attr title  "ARP initiated resolutions, count"
scalar StaticHierarchical.gw[2].networkLayer.arp 	sentReply:count 	14
attr title  "ARP replies sent, count"
scalar StaticHierarchical.gw[2].networkLayer.arp 	sentReq:count 	56
attr title  "ARP request sent, count"
scalar StaticHierarchical.gw[2].lo0.lo 	droppedPkBitError:count 	0
attr interpolationmode  none
attr source  dropPkBitError
attr title  "packets dropped/bit error, count"
scalar StaticHierarchical.gw[2].lo0.lo 	droppedPkBitError:sum(packetBytes) 	0
attr interpolationmode  none
attr source  dropPkBitError
attr title  "packets dropped/bit error, sum(packetBytes)"
scalar StaticHierarchical.gw[2].lo0.lo 	rcvdPkFromHL:count 	0
attr interpolationmode  none
attr source  packetReceivedFromUpper
attr title  "packets received from higher layer, count"
scalar StaticHierarchical.gw[2].lo0.lo 	rcvdPkFromHL:sum(packetBytes) 	0
attr interpolationmode  none
attr source  packetReceivedFromUpper
attr title  "packets received from higher layer, sum(packetBytes)"
scalar StaticHierarchical.gw[2].lo0.lo 	passedUpPk:count 	0
attr interpolationmode  none
attr source  packetSentToUpper
attr title  "packets passed to higher layer, count"
scalar StaticHierarchical.gw[2].lo0.lo 	passedUpPk:sum(packetBytes) 	0
attr interpolationmode  none
attr source  packetSentToUpper
attr title  "packets passed to higher layer, sum(packetBytes)"
scalar StaticHierarchical.gw[2].wlan[0].mgmt 	dataQueueLen:max 	1
attr interpolationmode  sample-hold
attr title  "data queue length, max"
scalar StaticHierarchical.gw[2].wlan[0].mgmt 	dataQueueLen:timeavg 	2.1288444444444e-07
attr interpolationmode  sample-hold
attr title  "data queue length, timeavg"
scalar StaticHierarchical.gw[2].wlan[0].mgmt 	dropPkByQueue:count 	0
attr interpolationmode  none
attr source  dropPkByQueue
attr title  "packets dropped by queue, count"
scalar StaticHierarchical.gw[2].wlan[0].mgmt 	dropPkByQueue:sum(packetBytes) 	0
attr interpolationmode  none
attr source  dropPkByQueue
attr title  "packets dropped by queue, sum(packetBytes)"
scalar StaticHierarchical.gw[2].wlan[0].mac 	"number of received packets" 	36786
scalar StaticHierarchical.gw[2].wlan[0].mac 	"number of collisions" 	2054
scalar StaticHierarchical.gw[2].wlan[0].mac 	"number of internal collisions" 	0
scalar StaticHierarchical.gw[2].wlan[0].mac 	"number of retry for AC 0" 	125
scalar StaticHierarchical.gw[2].wlan[0].mac 	"sent and received bits" 	55701840
scalar StaticHierarchical.gw[2].wlan[0].mac 	"sent packet within AC 0" 	36631
scalar StaticHierarchical.gw[2].wlan[0].mac 	"sent in TXOP " 	0
scalar StaticHierarchical.gw[2].wlan[0].mac 	"sentWithoutRetry AC 0" 	36545
scalar StaticHierarchical.gw[2].wlan[0].mac 	"numGivenUp AC 0" 	0
scalar StaticHierarchical.gw[2].wlan[0].mac 	"numDropped AC 0" 	0
scalar StaticHierarchical.gw[2].wlan[0].mac 	rcvdPkFromHL:count 	36675
attr interpolationmode  none
attr source  packetReceivedFromUpper
attr title  "packets received from higher layer, count"
scalar StaticHierarchical.gw[2].wlan[0].mac 	rcvdPkFromHL:sum(packetBytes) 	6962730
attr interpolationmode  none
attr source  packetReceivedFromUpper
attr title  "packets received from higher layer, sum(packetBytes)"
scalar StaticHierarchical.gw[2].wlan[0].mac 	passedUpPk:count 	36790
attr interpolationmode  none
attr source  packetSentToUpper
attr title  "packets passed to higher layer, count"
scalar StaticHierarchical.gw[2].wlan[0].mac 	passedUpPk:sum(packetBytes) 	6982420
attr interpolationmode  none
attr source  packetSentToUpper
attr title  "packets passed to higher layer, sum(packetBytes)"
scalar StaticHierarchical.gw[2].wlan[0].mac 	rcvdPkFromLL:count 	111626
attr interpolationmode  none
attr source  packetReceivedFromLower
attr title  "packets received from lower layer, count"
scalar StaticHierarchical.gw[2].wlan[0].mac 	rcvdPkFromLL:sum(packetBytes) 	11516516
attr interpolationmode  none
attr source  packetReceivedFromLower
attr title  "packets received from lower layer, sum(packetBytes)"
scalar StaticHierarchical.gw[2].wlan[0].mac 	sentDownPk:count 	73586
attr interpolationmode  none
attr source  packetSentToLower
attr title  "packets sent to lower layer, count"
scalar StaticHierarchical.gw[2].wlan[0].mac 	sentDownPk:sum(packetBytes) 	7501484
attr interpolationmode  none
attr source  packetSentToLower
attr title  "packets sent to lower layer, sum(packetBytes)"
scalar StaticHierarchical.gw[2].wlan[0].radio 	lossRate:min 	0
attr interpolationmode  backward-sample-hold
attr title  "packet loss rate, min"
scalar StaticHierarchical.gw[2].wlan[0].radio 	lossRate:max 	0.26
attr interpolationmode  backward-sample-hold
attr title  "packet loss rate, max"
scalar StaticHierarchical.gw[2].wlan[0].radio 	lossRate:timeavg 	0.018445962346087
attr interpolationmode  backward-sample-hold
attr title  "packet loss rate, timeavg"
statistic StaticHierarchical.gw[2].wlan[0].radio 	channelNo:histogram
field count 1
field mean 2
field stddev -nan
field sum 2
field sqrsum 4
field min 2
field max 2
attr interpolationmode  sample-hold
attr title  "channel no, histogram"
bin	-INF	0
bin	1	0
bin	2	1
bin	3	0
scalar StaticHierarchical.gw[2].wlan[0].radio 	bitrate:min 	11000000
attr interpolationmode  sample-hold
attr title  "tx bitrate, min"
attr unit  bps
scalar StaticHierarchical.gw[2].wlan[0].radio 	bitrate:max 	11000000
attr interpolationmode  sample-hold
attr title  "tx bitrate, max"
attr unit  bps
scalar StaticHierarchical.gw[2].wlan[0].radio 	bitrate:timeavg 	11000000
attr interpolationmode  sample-hold
attr title  "tx bitrate, timeavg"
attr unit  bps
scalar StaticHierarchical.gw[2].wlan[0].radio 	radioState:count 	369986
attr interpolationmode  sample-hold
attr title  "radio state (enum), count"
scalar StaticHierarchical.gw[2].wlan[1].mgmt 	dataQueueLen:max 	7
attr interpolationmode  sample-hold
attr title  "data queue length, max"
scalar StaticHierarchical.gw[2].wlan[1].mgmt 	dataQueueLen:timeavg 	0.0033483060433333
attr interpolationmode  sample-hold
attr title  "data queue length, timeavg"
scalar StaticHierarchical.gw[2].wlan[1].mgmt 	dropPkByQueue:count 	0
attr interpolationmode  none
attr source  dropPkByQueue
attr title  "packets dropped by queue, count"
scalar StaticHierarchical.gw[2].wlan[1].mgmt 	dropPkByQueue:sum(packetBytes) 	0
attr interpolationmode  none
attr source  dropPkByQueue
attr title  "packets dropped by queue, sum(packetBytes)"
scalar StaticHierarchical.gw[2].wlan[1].mac 	"number of received packets" 	82241
scalar StaticHierarchical.gw[2].wlan[1].mac 	"number of collisions" 	35632
scalar StaticHierarchical.gw[2].wlan[1].mac 	"number of internal collisions" 	0
scalar StaticHierarchical.gw[2].wlan[1].mac 	"number of retry for AC 0" 	12929
scalar StaticHierarchical.gw[2].wlan[1].mac 	"sent and received bits" 	125142880
scalar StaticHierarchical.gw[2].wlan[1].mac 	"sent packet within AC 0" 	82334
scalar StaticHierarchical.gw[2].wlan[1].mac 	"sent in TXOP " 	0
scalar StaticHierarchical.gw[2].wlan[1].mac 	"sentWithoutRetry AC 0" 	75740
scalar StaticHierarchical.gw[2].wlan[1].mac 	"numGivenUp AC 0" 	1
scalar StaticHierarchical.gw[2].wlan[1].mac 	"numDropped AC 0" 	0
scalar StaticHierarchical.gw[2].wlan[1].mac 	rcvdPkFromHL:count 	82347
attr interpolationmode  none
attr source  packetReceivedFromUpper
attr title  "packets received from higher layer, count"
scalar StaticHierarchical.gw[2].wlan[1].mac 	rcvdPkFromHL:sum(packetBytes) 	15643050
attr interpolationmode  none
attr source  packetReceivedFromUpper
attr title  "packets received from higher layer, sum(packetBytes)"
scalar StaticHierarchical.gw[2].wlan[1].mac 	passedUpPk:count 	82261
attr interpolationmode  none
attr source  packetSentToUpper
attr title  "packets passed to higher layer, count"
scalar StaticHierarchical.gw[2].wlan[1].mac 	passedUpPk:sum(packetBytes) 	15625390
attr interpolationmode  none
attr source  packetSentToUpper
attr title  "packets passed to higher layer, sum(packetBytes)"
scalar StaticHierarchical.gw[2].wlan[1].mac 	rcvdPkFromLL:count 	322061
attr interpolationmode  none
attr source  packetReceivedFromLower
attr title  "packets received from lower layer, count"
scalar StaticHierarchical.gw[2].wlan[1].mac 	rcvdPkFromLL:sum(packetBytes) 	34664798
attr interpolationmode  none
attr source  packetReceivedFromLower
attr title  "packets received from lower layer, sum(packetBytes)"
scalar StaticHierarchical.gw[2].wlan[1].mac 	sentDownPk:count 	177517
attr interpolationmode  none
attr source  packetSentToLower
attr title  "packets sent to lower layer, count"
scalar StaticHierarchical.gw[2].wlan[1].mac 	sentDownPk:sum(packetBytes) 	19249974
attr interpolationmode  none
attr source  packetSentToLower
attr title  "packets sent to lower layer, sum(packetBytes)"
scalar StaticHierarchical.gw[2].wlan[1].radio 	lossRate:min 	0
attr interpolationmode  backward-sample-hold
attr title  "packet loss rate, min"
scalar StaticHierarchical.gw[2].wlan[1].radio 	lossRate:max 	0.42
attr interpolationmode  backward-sample-hold
attr title  "packet loss rate, max"
scalar StaticHierarchical.gw[2].wlan[1].radio 	lossRate:timeavg 	0.11341636561236
attr interpolationmode  backward-sample-hold
attr title  "packet loss rate, timeavg"
statistic StaticHierarchical.gw[2].wlan[1].radio 	channelNo:histogram
field count 1
field mean 5
field stddev -nan
field sum 5
field sqrsum 25
field min 5
field max 5
attr interpolationmode  sample-hold
attr title  "channel no, histogram"
bin	-INF	0
bin	4	0
bin	5	1
bin	6	0
scalar StaticHierarchical.gw[2].wlan[1].radio 	bitrate:min 	11000000
attr interpolationmode  sample-hold
attr title  "tx bitrate, min"
attr unit  bps
scalar StaticHierarchical.gw[2].wlan[1].radio 	bitrate:max 	11000000
attr interpolationmode  sample-hold
attr title  "tx bitrate, max"
attr unit  bps
scalar StaticHierarchical.gw[2].wlan[1].radio 	bitrate:timeavg 	11000000
attr interpolationmode  sample-hold
attr title  "tx bitrate, timeavg"
attr unit  bps
scalar StaticHierarchical.gw[2].wlan[1].radio 	radioState:count 	1018075
attr interpolationmode  sample-hold
attr title  "radio state (enum), count"
scalar StaticHierarchical.gw[2].udp 	droppedPkBadChecksum:count 	0
attr interpolationmode  none
attr title  "packets dropped (checksum error), count"
scalar StaticHierarchical.gw[2].udp 	droppedPkWrongPort:count 	0
attr interpolationmode  none
attr title  "packets dropped (wrong port), count"
scalar StaticHierarchical.gw[2].udp 	passedUpPk:count 	0
attr interpolationmode  none
attr title  "packets passed up, count"
scalar StaticHierarchical.gw[2].udp 	rcvdPk:count 	0
attr interpolationmode  none
attr source  rcvdPk
attr title  "packets received, count"
scalar StaticHierarchical.gw[2].udp 	rcvdPk:sum(packetBytes) 	0
attr interpolationmode  none
attr source  rcvdPk
attr title  "packets received, sum(packetBytes)"
scalar StaticHierarchical.gw[2].udp 	sentPk:count 	0
attr interpolationmode  none
attr source  sentPk
attr title  "packets sent, count"
scalar StaticHierarchical.gw[2].udp 	sentPk:sum(packetBytes) 	0
attr interpolationmode  none
attr source  sentPk
attr title  "packets sent, sum(packetBytes)"
scalar StaticHierarchical.gw[2].pingApp[0] 	numOutOfOrderArrivals:last 	-nan
attr interpolationmode  none
attr title  "ping out-of-order arrivals, last"
scalar StaticHierarchical.gw[2].pingApp[0] 	pingRxSeq:count 	0
attr interpolationmode  none
attr title  "ping rx seq, count"
scalar StaticHierarchical.gw[2].pingApp[0] 	pingTxSeq:count 	0
attr interpolationmode  none
attr title  "ping tx seq, count"
scalar StaticHierarchical.gw[2].pingApp[0] 	numLost:last 	-nan
attr interpolationmode  none
attr title  "pings lost, last"
statistic StaticHierarchical.gw[2].pingApp[0] 	rtt:histogram
field count 0
field mean -nan
field stddev -nan
field sum 0
field sqrsum 0
field min -nan
field max -nan
attr interpolationmode  none
attr title  "ping round-trip time, histogram"
attr unit  s
bin	-INF	0
bin	-0.5	0
bin	-0.46666666666667	0
bin	-0.43333333333333	0
bin	-0.4	0
bin	-0.36666666666667	0
bin	-0.33333333333333	0
bin	-0.3	0
bin	-0.26666666666667	0
bin	-0.23333333333333	0
bin	-0.2	0
bin	-0.16666666666667	0
bin	-0.13333333333333	0
bin	-0.1	0
bin	-0.066666666666667	0
bin	-0.033333333333333	0
bin	0	0
bin	0.033333333333333	0
bin	0.066666666666667	0
bin	0.1	0
bin	0.13333333333333	0
bin	0.16666666666667	0
bin	0.2	0
bin	0.23333333333333	0
bin	0.26666666666667	0
bin	0.3	0
bin	0.33333333333333	0
bin	0.36666666666667	0
bin	0.4	0
bin	0.43333333333333	0
bin	0.46666666666667	0
bin	0.5	0
scalar StaticHierarchical.gw[2].pingTestApp[0] 	numOutOfOrderArrivals:last 	-nan
attr interpolationmode  none
attr title  "ping out-of-order arrivals, last"
scalar StaticHierarchical.gw[2].pingTestApp[0] 	pingRxSeq:count 	0
attr interpolationmode  none
attr title  "ping rx seq, count"
scalar StaticHierarchical.gw[2].pingTestApp[0] 	pingTxSeq:count 	0
attr interpolationmode  none
attr title  "ping tx seq, count"
scalar StaticHierarchical.gw[2].pingTestApp[0] 	numLost:last 	-nan
attr interpolationmode  none
attr title  "pings lost, last"
statistic StaticHierarchical.gw[2].pingTestApp[0] 	rtt:histogram
field count 0
field mean -nan
field stddev -nan
field sum 0
field sqrsum 0
field min -nan
field max -nan
attr interpolationmode  none
attr title  "ping round-trip time, histogram"
attr unit  s
bin	-INF	0
bin	-0.5	0
bin	-0.46666666666667	0
bin	-0.43333333333333	0
bin	-0.4	0
bin	-0.36666666666667	0
bin	-0.33333333333333	0
bin	-0.3	0
bin	-0.26666666666667	0
bin	-0.23333333333333	0
bin	-0.2	0
bin	-0.16666666666667	0
bin	-0.13333333333333	0
bin	-0.1	0
bin	-0.066666666666667	0
bin	-0.033333333333333	0
bin	0	0
bin	0.033333333333333	0
bin	0.066666666666667	0
bin	0.1	0
bin	0.13333333333333	0
bin	0.16666666666667	0
bin	0.2	0
bin	0.23333333333333	0
bin	0.26666666666667	0
bin	0.3	0
bin	0.33333333333333	0
bin	0.36666666666667	0
bin	0.4	0
bin	0.43333333333333	0
bin	0.46666666666667	0
bin	0.5	0
scalar StaticHierarchical.gw[3].networkLayer.arp 	failedARPResolution:count 	0
attr title  "ARP failed resolutions, count"
scalar StaticHierarchical.gw[3].networkLayer.arp 	completedARPResolution:count 	30
attr title  "ARP completed resolutions, count"
scalar StaticHierarchical.gw[3].networkLayer.arp 	initiatedARPResolution:count 	12
attr title  "ARP initiated resolutions, count"
scalar StaticHierarchical.gw[3].networkLayer.arp 	sentReply:count 	12
attr title  "ARP replies sent, count"
scalar StaticHierarchical.gw[3].networkLayer.arp 	sentReq:count 	12
attr title  "ARP request sent, count"
scalar StaticHierarchical.gw[3].lo0.lo 	droppedPkBitError:count 	0
attr interpolationmode  none
attr source  dropPkBitError
attr title  "packets dropped/bit error, count"
scalar StaticHierarchical.gw[3].lo0.lo 	droppedPkBitError:sum(packetBytes) 	0
attr interpolationmode  none
attr source  dropPkBitError
attr title  "packets dropped/bit error, sum(packetBytes)"
scalar StaticHierarchical.gw[3].lo0.lo 	rcvdPkFromHL:count 	0
attr interpolationmode  none
attr source  packetReceivedFromUpper
attr title  "packets received from higher layer, count"
scalar StaticHierarchical.gw[3].lo0.lo 	rcvdPkFromHL:sum(packetBytes) 	0
attr interpolationmode  none
attr source  packetReceivedFromUpper
attr title  "packets received from higher layer, sum(packetBytes)"
scalar StaticHierarchical.gw[3].lo0.lo 	passedUpPk:count 	0
attr interpolationmode  none
attr source  packetSentToUpper
attr title  "packets passed to higher layer, count"
scalar StaticHierarchical.gw[3].lo0.lo 	passedUpPk:sum(packetBytes) 	0
attr interpolationmode  none
attr source  packetSentToUpper
attr title  "packets passed to higher layer, sum(packetBytes)"
scalar StaticHierarchical.gw[3].wlan[0].mgmt 	dataQueueLen:max 	0
attr interpolationmode  sample-hold
attr title  "data queue length, max"
scalar StaticHierarchical.gw[3].wlan[0].mgmt 	dataQueueLen:timeavg 	0
attr interpolationmode  sample-hold
attr title  "data queue length, timeavg"
scalar StaticHierarchical.gw[3].wlan[0].mgmt 	dropPkByQueue:count 	0
attr interpolationmode  none
attr source  dropPkByQueue
attr title  "packets dropped by queue, count"
scalar StaticHierarchical.gw[3].wlan[0].mgmt 	dropPkByQueue:sum(packetBytes) 	0
attr interpolationmode  none
attr source  dropPkByQueue
attr title  "packets dropped by queue, sum(packetBytes)"
scalar StaticHierarchical.gw[3].wlan[0].mac 	"number of received packets" 	0
scalar StaticHierarchical.gw[3].wlan[0].mac 	"number of collisions" 	0
scalar StaticHierarchical.gw[3].wlan[0].mac 	"number of internal collisions" 	0
scalar StaticHierarchical.gw[3].wlan[0].mac 	"number of retry for AC 0" 	0
scalar StaticHierarchical.gw[3].wlan[0].mac 	"sent and received bits" 	0
scalar StaticHierarchical.gw[3].wlan[0].mac 	"sent packet within AC 0" 	0
scalar StaticHierarchical.gw[3].wlan[0].mac 	"sent in TXOP " 	0
scalar StaticHierarchical.gw[3].wlan[0].mac 	"sentWithoutRetry AC 0" 	0
scalar StaticHierarchical.gw[3].wlan[0].mac 	"numGivenUp AC 0" 	0
scalar StaticHierarchical.gw[3].wlan[0].mac 	"numDropped AC 0" 	0
scalar StaticHierarchical.gw[3].wlan[0].mac 	rcvdPkFromHL:count 	0
attr interpolationmode  none
attr source  packetReceivedFromUpper
attr title  "packets received from higher layer, count"
scalar StaticHierarchical.gw[3].wlan[0].mac 	rcvdPkFromHL:sum(packetBytes) 	0
attr interpolationmode  none
attr source  packetReceivedFromUpper
attr title  "packets received from higher layer, sum(packetBytes)"
scalar StaticHierarchical.gw[3].wlan[0].mac 	passedUpPk:count 	0
attr interpolationmode  none
attr source  packetSentToUpper
attr title  "packets passed to higher layer, count"
scalar StaticHierarchical.gw[3].wlan[0].mac 	passedUpPk:sum(packetBytes) 	0
attr interpolationmode  none
attr source  packetSentToUpper
attr title  "packets passed to higher layer, sum(packetBytes)"
scalar StaticHierarchical.gw[3].wlan[0].mac 	rcvdPkFromLL:count 	0
attr interpolationmode  none
attr source  packetReceivedFromLower
attr title  "packets received from lower layer, count"
scalar StaticHierarchical.gw[3].wlan[0].mac 	rcvdPkFromLL:sum(packetBytes) 	0
attr interpolationmode  none
attr source  packetReceivedFromLower
attr title  "packets received from lower layer, sum(packetBytes)"
scalar StaticHierarchical.gw[3].wlan[0].mac 	sentDownPk:count 	0
attr interpolationmode  none
attr source  packetSentToLower
attr title  "packets sent to lower layer, count"
scalar StaticHierarchical.gw[3].wlan[0].mac 	sentDownPk:sum(packetBytes) 	0
attr interpolationmode  none
attr source  packetSentToLower
attr title  "packets sent to lower layer, sum(packetBytes)"
scalar StaticHierarchical.gw[3].wlan[0].radio 	lossRate:min 	-nan
attr interpolationmode  backward-sample-hold
attr title  "packet loss rate, min"
scalar StaticHierarchical.gw[3].wlan[0].radio 	lossRate:max 	-nan
attr interpolationmode  backward-sample-hold
attr title  "packet loss rate, max"
scalar StaticHierarchical.gw[3].wlan[0].radio 	lossRate:timeavg 	-nan
attr interpolationmode  backward-sample-hold
attr title  "packet loss rate, timeavg"
statistic StaticHierarchical.gw[3].wlan[0].radio 	channelNo:histogram
field count 1
field mean 3
field stddev -nan
field sum 3
field sqrsum 9
field min 3
field max 3
attr interpolationmode  sample-hold
attr title  "channel no, histogram"
bin	-INF	0
bin	2	0
bin	3	1
bin	4	0
scalar StaticHierarchical.gw[3].wlan[0].radio 	bitrate:min 	11000000
attr interpolationmode  sample-hold
attr title  "tx bitrate, min"
attr unit  bps
scalar StaticHierarchical.gw[3].wlan[0].radio 	bitrate:max 	11000000
attr interpolationmode  sample-hold
attr title  "tx bitrate, max"
attr unit  bps
scalar StaticHierarchical.gw[3].wlan[0].radio 	bitrate:timeavg 	11000000
attr interpolationmode  sample-hold
attr title  "tx bitrate, timeavg"
attr unit  bps
scalar StaticHierarchical.gw[3].wlan[0].radio 	radioState:count 	1
attr interpolationmode  sample-hold
attr title  "radio state (enum), count"
scalar StaticHierarchical.gw[3].wlan[1].mgmt 	dataQueueLen:max 	5
attr interpolationmode  sample-hold
attr title  "data queue length, max"
scalar StaticHierarchical.gw[3].wlan[1].mgmt 	dataQueueLen:timeavg 	0.0030158374033333
attr interpolationmode  sample-hold
attr title  "data queue length, timeavg"
scalar StaticHierarchical.gw[3].wlan[1].mgmt 	dropPkByQueue:count 	0
attr interpolationmode  none
attr source  dropPkByQueue
attr title  "packets dropped by queue, count"
scalar StaticHierarchical.gw[3].wlan[1].mgmt 	dropPkByQueue:sum(packetBytes) 	0
attr interpolationmode  none
attr source  dropPkByQueue
attr title  "packets dropped by queue, sum(packetBytes)"
scalar StaticHierarchical.gw[3].wlan[1].mac 	"number of received packets" 	73225
scalar StaticHierarchical.gw[3].wlan[1].mac 	"number of collisions" 	28974
scalar StaticHierarchical.gw[3].wlan[1].mac 	"number of internal collisions" 	0
scalar StaticHierarchical.gw[3].wlan[1].mac 	"number of retry for AC 0" 	14522
scalar StaticHierarchical.gw[3].wlan[1].mac 	"sent and received bits" 	111122400
scalar StaticHierarchical.gw[3].wlan[1].mac 	"sent packet within AC 0" 	73110
scalar StaticHierarchical.gw[3].wlan[1].mac 	"sent in TXOP " 	0
scalar StaticHierarchical.gw[3].wlan[1].mac 	"sentWithoutRetry AC 0" 	66905
scalar StaticHierarchical.gw[3].wlan[1].mac 	"numGivenUp AC 0" 	40
scalar StaticHierarchical.gw[3].wlan[1].mac 	"numDropped AC 0" 	0
scalar StaticHierarchical.gw[3].wlan[1].mac 	rcvdPkFromHL:count 	73162
attr interpolationmode  none
attr source  packetReceivedFromUpper
attr title  "packets received from higher layer, count"
scalar StaticHierarchical.gw[3].wlan[1].mac 	rcvdPkFromHL:sum(packetBytes) 	13897900
attr interpolationmode  none
attr source  packetReceivedFromUpper
attr title  "packets received from higher layer, sum(packetBytes)"
scalar StaticHierarchical.gw[3].wlan[1].mac 	passedUpPk:count 	73168
attr interpolationmode  none
attr source  packetSentToUpper
attr title  "packets passed to higher layer, count"
scalar StaticHierarchical.gw[3].wlan[1].mac 	passedUpPk:sum(packetBytes) 	13898320
attr interpolationmode  none
attr source  packetSentToUpper
attr title  "packets passed to higher layer, sum(packetBytes)"
scalar StaticHierarchical.gw[3].wlan[1].mac 	rcvdPkFromLL:count 	264369
attr interpolationmode  none
attr source  packetReceivedFromLower
attr title  "packets received from lower layer, count"
scalar StaticHierarchical.gw[3].wlan[1].mac 	rcvdPkFromLL:sum(packetBytes) 	29332166
attr interpolationmode  none
attr source  packetReceivedFromLower
attr title  "packets received from lower layer, sum(packetBytes)"
scalar StaticHierarchical.gw[3].wlan[1].mac 	sentDownPk:count 	160909
attr interpolationmode  none
attr source  packetSentToLower
attr title  "packets sent to lower layer, count"
scalar StaticHierarchical.gw[3].wlan[1].mac 	sentDownPk:sum(packetBytes) 	17681870
attr interpolationmode  none
attr source  packetSentToLower
attr title  "packets sent to lower layer, sum(packetBytes)"
scalar StaticHierarchical.gw[3].wlan[1].radio 	lossRate:min 	0
attr interpolationmode  backward-sample-hold
attr title  "packet loss rate, min"
scalar StaticHierarchical.gw[3].wlan[1].radio 	lossRate:max 	0.46
attr interpolationmode  backward-sample-hold
attr title  "packet loss rate, max"
scalar StaticHierarchical.gw[3].wlan[1].radio 	lossRate:timeavg 	0.11271880287099
attr interpolationmode  backward-sample-hold
attr title  "packet loss rate, timeavg"
statistic StaticHierarchical.gw[3].wlan[1].radio 	channelNo:histogram
field count 1
field mean 5
field stddev -nan
field sum 5
field sqrsum 25
field min 5
field max 5
attr interpolationmode  sample-hold
attr title  "channel no, histogram"
bin	-INF	0
bin	4	0
bin	5	1
bin	6	0
scalar StaticHierarchical.gw[3].wlan[1].radio 	bitrate:min 	11000000
attr interpolationmode  sample-hold
attr title  "tx bitrate, min"
attr unit  bps
scalar StaticHierarchical.gw[3].wlan[1].radio 	bitrate:max 	11000000
attr interpolationmode  sample-hold
attr title  "tx bitrate, max"
attr unit  bps
scalar StaticHierarchical.gw[3].wlan[1].radio 	bitrate:timeavg 	11000000
attr interpolationmode  sample-hold
attr title  "tx bitrate, timeavg"
attr unit  bps
scalar StaticHierarchical.gw[3].wlan[1].radio 	radioState:count 	849117
attr interpolationmode  sample-hold
attr title  "radio state (enum), count"
scalar StaticHierarchical.gw[3].udp 	droppedPkBadChecksum:count 	0
attr interpolationmode  none
attr title  "packets dropped (checksum error), count"
scalar StaticHierarchical.gw[3].udp 	droppedPkWrongPort:count 	0
attr interpolationmode  none
attr title  "packets dropped (wrong port), count"
scalar StaticHierarchical.gw[3].udp 	passedUpPk:count 	0
attr interpolationmode  none
attr title  "packets passed up, count"
scalar StaticHierarchical.gw[3].udp 	rcvdPk:count 	0
attr interpolationmode  none
attr source  rcvdPk
attr title  "packets received, count"
scalar StaticHierarchical.gw[3].udp 	rcvdPk:sum(packetBytes) 	0
attr interpolationmode  none
attr source  rcvdPk
attr title  "packets received, sum(packetBytes)"
scalar StaticHierarchical.gw[3].udp 	sentPk:count 	0
attr interpolationmode  none
attr source  sentPk
attr title  "packets sent, count"
scalar StaticHierarchical.gw[3].udp 	sentPk:sum(packetBytes) 	0
attr interpolationmode  none
attr source  sentPk
attr title  "packets sent, sum(packetBytes)"
scalar StaticHierarchical.gw[3].pingApp[0] 	numOutOfOrderArrivals:last 	-nan
attr interpolationmode  none
attr title  "ping out-of-order arrivals, last"
scalar StaticHierarchical.gw[3].pingApp[0] 	pingRxSeq:count 	0
attr interpolationmode  none
attr title  "ping rx seq, count"
scalar StaticHierarchical.gw[3].pingApp[0] 	pingTxSeq:count 	0
attr interpolationmode  none
attr title  "ping tx seq, count"
scalar StaticHierarchical.gw[3].pingApp[0] 	numLost:last 	-nan
attr interpolationmode  none
attr title  "pings lost, last"
statistic StaticHierarchical.gw[3].pingApp[0] 	rtt:histogram
field count 0
field mean -nan
field stddev -nan
field sum 0
field sqrsum 0
field min -nan
field max -nan
attr interpolationmode  none
attr title  "ping round-trip time, histogram"
attr unit  s
bin	-INF	0
bin	-0.5	0
bin	-0.46666666666667	0
bin	-0.43333333333333	0
bin	-0.4	0
bin	-0.36666666666667	0
bin	-0.33333333333333	0
bin	-0.3	0
bin	-0.26666666666667	0
bin	-0.23333333333333	0
bin	-0.2	0
bin	-0.16666666666667	0
bin	-0.13333333333333	0
bin	-0.1	0
bin	-0.066666666666667	0
bin	-0.033333333333333	0
bin	0	0
bin	0.033333333333333	0
bin	0.066666666666667	0
bin	0.1	0
bin	0.13333333333333	0
bin	0.16666666666667	0
bin	0.2	0
bin	0.23333333333333	0
bin	0.26666666666667	0
bin	0.3	0
bin	0.33333333333333	0
bin	0.36666666666667	0
bin	0.4	0
bin	0.43333333333333	0
bin	0.46666666666667	0
bin	0.5	0
scalar StaticHierarchical.gw[3].pingTestApp[0] 	numOutOfOrderArrivals:last 	-nan
attr interpolationmode  none
attr title  "ping out-of-order arrivals, last"
scalar StaticHierarchical.gw[3].pingTestApp[0] 	pingRxSeq:count 	0
attr interpolationmode  none
attr title  "ping rx seq, count"
scalar StaticHierarchical.gw[3].pingTestApp[0] 	pingTxSeq:count 	0
attr interpolationmode  none
attr title  "ping tx seq, count"
scalar StaticHierarchical.gw[3].pingTestApp[0] 	numLost:last 	-nan
attr interpolationmode  none
attr title  "pings lost, last"
statistic StaticHierarchical.gw[3].pingTestApp[0] 	rtt:histogram
field count 0
field mean -nan
field stddev -nan
field sum 0
field sqrsum 0
field min -nan
field max -nan
attr interpolationmode  none
attr title  "ping round-trip time, histogram"
attr unit  s
bin	-INF	0
bin	-0.5	0
bin	-0.46666666666667	0
bin	-0.43333333333333	0
bin	-0.4	0
bin	-0.36666666666667	0
bin	-0.33333333333333	0
bin	-0.3	0
bin	-0.26666666666667	0
bin	-0.23333333333333	0
bin	-0.2	0
bin	-0.16666666666667	0
bin	-0.13333333333333	0
bin	-0.1	0
bin	-0.066666666666667	0
bin	-0.033333333333333	0
bin	0	0
bin	0.033333333333333	0
bin	0.066666666666667	0
bin	0.1	0
bin	0.13333333333333	0
bin	0.16666666666667	0
bin	0.2	0
bin	0.23333333333333	0
bin	0.26666666666667	0
bin	0.3	0
bin	0.33333333333333	0
bin	0.36666666666667	0
bin	0.4	0
bin	0.43333333333333	0
bin	0.46666666666667	0
bin	0.5	0
scalar StaticHierarchical.gw[4].networkLayer.arp 	failedARPResolution:count 	0
attr title  "ARP failed resolutions, count"
scalar StaticHierarchical.gw[4].networkLayer.arp 	completedARPResolution:count 	80
attr title  "ARP completed resolutions, count"
scalar StaticHierarchical.gw[4].networkLayer.arp 	initiatedARPResolution:count 	62
attr title  "ARP initiated resolutions, count"
scalar StaticHierarchical.gw[4].networkLayer.arp 	sentReply:count 	7
attr title  "ARP replies sent, count"
scalar StaticHierarchical.gw[4].networkLayer.arp 	sentReq:count 	63
attr title  "ARP request sent, count"
scalar StaticHierarchical.gw[4].lo0.lo 	droppedPkBitError:count 	0
attr interpolationmode  none
attr source  dropPkBitError
attr title  "packets dropped/bit error, count"
scalar StaticHierarchical.gw[4].lo0.lo 	droppedPkBitError:sum(packetBytes) 	0
attr interpolationmode  none
attr source  dropPkBitError
attr title  "packets dropped/bit error, sum(packetBytes)"
scalar StaticHierarchical.gw[4].lo0.lo 	rcvdPkFromHL:count 	0
attr interpolationmode  none
attr source  packetReceivedFromUpper
attr title  "packets received from higher layer, count"
scalar StaticHierarchical.gw[4].lo0.lo 	rcvdPkFromHL:sum(packetBytes) 	0
attr interpolationmode  none
attr source  packetReceivedFromUpper
attr title  "packets received from higher layer, sum(packetBytes)"
scalar StaticHierarchical.gw[4].lo0.lo 	passedUpPk:count 	0
attr interpolationmode  none
attr source  packetSentToUpper
attr title  "packets passed to higher layer, count"
scalar StaticHierarchical.gw[4].lo0.lo 	passedUpPk:sum(packetBytes) 	0
attr interpolationmode  none
attr source  packetSentToUpper
attr title  "packets passed to higher layer, sum(packetBytes)"
scalar StaticHierarchical.gw[4].wlan[0].mgmt 	dataQueueLen:max 	1
attr interpolationmode  sample-hold
attr title  "data queue length, max"
scalar StaticHierarchical.gw[4].wlan[0].mgmt 	dataQueueLen:timeavg 	5.2754022222222e-06
attr interpolationmode  sample-hold
attr title  "data queue length, timeavg"
scalar StaticHierarchical.gw[4].wlan[0].mgmt 	dropPkByQueue:count 	0
attr interpolationmode  none
attr source  dropPkByQueue
attr title  "packets dropped by queue, count"
scalar StaticHierarchical.gw[4].wlan[0].mgmt 	dropPkByQueue:sum(packetBytes) 	0
attr interpolationmode  none
attr source  dropPkByQueue
attr title  "packets dropped by queue, sum(packetBytes)"
scalar StaticHierarchical.gw[4].wlan[0].mac 	"number of received packets" 	41396
scalar StaticHierarchical.gw[4].wlan[0].mac 	"number of collisions" 	1179
scalar StaticHierarchical.gw[4].wlan[0].mac 	"number of internal collisions" 	0
scalar StaticHierarchical.gw[4].wlan[0].mac 	"number of retry for AC 0" 	10
scalar StaticHierarchical.gw[4].wlan[0].mac 	"sent and received bits" 	62605760
scalar StaticHierarchical.gw[4].wlan[0].mac 	"sent packet within AC 0" 	41168
scalar StaticHierarchical.gw[4].wlan[0].mac 	"sent in TXOP " 	0
scalar StaticHierarchical.gw[4].wlan[0].mac 	"sentWithoutRetry AC 0" 	41159
scalar StaticHierarchical.gw[4].wlan[0].mac 	"numGivenUp AC 0" 	0
scalar StaticHierarchical.gw[4].wlan[0].mac 	"numDropped AC 0" 	0
scalar StaticHierarchical.gw[4].wlan[0].mac 	rcvdPkFromHL:count 	41225
attr interpolationmode  none
attr source  packetReceivedFromUpper
attr title  "packets received from higher layer, count"
scalar StaticHierarchical.gw[4].wlan[0].mac 	rcvdPkFromHL:sum(packetBytes) 	7825910
attr interpolationmode  none
attr source  packetReceivedFromUpper
attr title  "packets received from higher layer, sum(packetBytes)"
scalar StaticHierarchical.gw[4].wlan[0].mac 	passedUpPk:count 	41394
attr interpolationmode  none
attr source  packetSentToUpper
attr title  "packets passed to higher layer, count"
scalar StaticHierarchical.gw[4].wlan[0].mac 	passedUpPk:sum(packetBytes) 	7857420
attr interpolationmode  none
attr source  packetSentToUpper
attr title  "packets passed to higher layer, sum(packetBytes)"
scalar StaticHierarchical.gw[4].wlan[0].mac 	rcvdPkFromLL:count 	92803
attr interpolationmode  none
attr source  packetReceivedFromLower
attr title  "packets received from lower layer, count"
scalar StaticHierarchical.gw[4].wlan[0].mac 	rcvdPkFromLL:sum(packetBytes) 	9568658
attr interpolationmode  none
attr source  packetReceivedFromLower
attr title  "packets received from lower layer, sum(packetBytes)"
scalar StaticHierarchical.gw[4].wlan[0].mac 	sentDownPk:count 	82631
attr interpolationmode  none
attr source  packetSentToLower
attr title  "packets sent to lower layer, count"
scalar StaticHierarchical.gw[4].wlan[0].mac 	sentDownPk:sum(packetBytes) 	8407354
attr interpolationmode  none
attr source  packetSentToLower
attr title  "packets sent to lower layer, sum(packetBytes)"
scalar StaticHierarchical.gw[4].wlan[0].radio 	lossRate:min 	0
attr interpolationmode  backward-sample-hold
attr title  "packet loss rate, min"
scalar StaticHierarchical.gw[4].wlan[0].radio 	lossRate:max 	0.24
attr interpolationmode  backward-sample-hold
attr title  "packet loss rate, max"
scalar StaticHierarchical.gw[4].wlan[0].radio 	lossRate:timeavg 	0.012706542427276
attr interpolationmode  backward-sample-hold
attr title  "packet loss rate, timeavg"
statistic StaticHierarchical.gw[4].wlan[0].radio 	channelNo:histogram
field count 1
field mean 4
field stddev -nan
field sum 4
field sqrsum 16
field min 4
field max 4
attr interpolationmode  sample-hold
attr title  "channel no, histogram"
bin	-INF	0
bin	3	0
bin	4	1
bin	5	0
scalar StaticHierarchical.gw[4].wlan[0].radio 	bitrate:min 	11000000
attr interpolationmode  sample-hold
attr title  "tx bitrate, min"
attr unit  bps
scalar StaticHierarchical.gw[4].wlan[0].radio 	bitrate:max 	11000000
attr interpolationmode  sample-hold
attr title  "tx bitrate, max"
attr unit  bps
scalar StaticHierarchical.gw[4].wlan[0].radio 	bitrate:timeavg 	11000000
attr interpolationmode  sample-hold
attr title  "tx bitrate, timeavg"
attr unit  bps
scalar StaticHierarchical.gw[4].wlan[0].radio 	radioState:count 	350770
attr interpolationmode  sample-hold
attr title  "radio state (enum), count"
scalar StaticHierarchical.gw[4].wlan[1].mgmt 	dataQueueLen:max 	10
attr interpolationmode  sample-hold
attr title  "data queue length, max"
scalar StaticHierarchical.gw[4].wlan[1].mgmt 	dataQueueLen:timeavg 	0.0039217303155556
attr interpolationmode  sample-hold
attr title  "data queue length, timeavg"
scalar StaticHierarchical.gw[4].wlan[1].mgmt 	dropPkByQueue:count 	39
attr interpolationmode  none
attr source  dropPkByQueue
attr title  "packets dropped by queue, count"
scalar StaticHierarchical.gw[4].wlan[1].mgmt 	dropPkByQueue:sum(packetBytes) 	7410
attr interpolationmode  none
attr source  dropPkByQueue
attr title  "packets dropped by queue, sum(packetBytes)"
scalar StaticHierarchical.gw[4].wlan[1].mac 	"number of received packets" 	36652
scalar StaticHierarchical.gw[4].wlan[1].mac 	"number of collisions" 	1407
scalar StaticHierarchical.gw[4].wlan[1].mac 	"number of internal collisions" 	0
scalar StaticHierarchical.gw[4].wlan[1].mac 	"number of retry for AC 0" 	26748
scalar StaticHierarchical.gw[4].wlan[1].mac 	"sent and received bits" 	55593680
scalar StaticHierarchical.gw[4].wlan[1].mac 	"sent packet within AC 0" 	36576
scalar StaticHierarchical.gw[4].wlan[1].mac 	"sent in TXOP " 	0
scalar StaticHierarchical.gw[4].wlan[1].mac 	"sentWithoutRetry AC 0" 	26356
scalar StaticHierarchical.gw[4].wlan[1].mac 	"numGivenUp AC 0" 	123
scalar StaticHierarchical.gw[4].wlan[1].mac 	"numDropped AC 0" 	0
scalar StaticHierarchical.gw[4].wlan[1].mac 	rcvdPkFromHL:count 	36706
attr interpolationmode  none
attr source  packetReceivedFromUpper
attr title  "packets received from higher layer, count"
scalar StaticHierarchical.gw[4].wlan[1].mac 	rcvdPkFromHL:sum(packetBytes) 	6972580
attr interpolationmode  none
attr source  packetReceivedFromUpper
attr title  "packets received from higher layer, sum(packetBytes)"
scalar StaticHierarchical.gw[4].wlan[1].mac 	passedUpPk:count 	36586
attr interpolationmode  none
attr source  packetSentToUpper
attr title  "packets passed to higher layer, count"
scalar StaticHierarchical.gw[4].wlan[1].mac 	passedUpPk:sum(packetBytes) 	6949180
attr interpolationmode  none
attr source  packetSentToUpper
attr title  "packets passed to higher layer, sum(packetBytes)"
scalar StaticHierarchical.gw[4].wlan[1].mac 	rcvdPkFromLL:count 	160757
attr interpolationmode  none
attr source  packetReceivedFromLower
attr title  "packets received from lower layer, count"
scalar StaticHierarchical.gw[4].wlan[1].mac 	rcvdPkFromLL:sum(packetBytes) 	17666718
attr interpolationmode  none
attr source  packetReceivedFromLower
attr title  "packets received from lower layer, sum(packetBytes)"
scalar StaticHierarchical.gw[4].wlan[1].mac 	sentDownPk:count 	100106
attr interpolationmode  none
attr source  packetSentToLower
attr title  "packets sent to lower layer, count"
scalar StaticHierarchical.gw[4].wlan[1].mac 	sentDownPk:sum(packetBytes) 	12567708
attr interpolationmode  none
attr source  packetSentToLower
attr title  "packets sent to lower layer, sum(packetBytes)"
scalar StaticHierarchical.gw[4].wlan[1].radio 	lossRate:min 	0
attr interpolationmode  backward-sample-hold
attr title  "packet loss rate, min"
scalar StaticHierarchical.gw[4].wlan[1].radio 	lossRate:max 	0.1
attr interpolationmode  backward-sample-hold
attr title  "packet loss rate, max"
scalar StaticHierarchical.gw[4].wlan[1].radio 	lossRate:timeavg 	0.0087544325869178
attr interpolationmode  backward-sample-hold
attr title  "packet loss rate, timeavg"
statistic StaticHierarchical.gw[4].wlan[1].radio 	channelNo:histogram
field count 1
field mean 5
field stddev -nan
field sum 5
field sqrsum 25
field min 5
field max 5
attr interpolationmode  sample-hold
attr title  "channel no, histogram"
bin	-INF	0
bin	4	0
bin	5	1
bin	6	0
scalar StaticHierarchical.gw[4].wlan[1].radio 	bitrate:min 	11000000
attr interpolationmode  sample-hold
attr title  "tx bitrate, min"
attr unit  bps
scalar StaticHierarchical.gw[4].wlan[1].radio 	bitrate:max 	11000000
attr interpolationmode  sample-hold
attr title  "tx bitrate, max"
attr unit  bps
scalar StaticHierarchical.gw[4].wlan[1].radio 	bitrate:timeavg 	11000000
attr interpolationmode  sample-hold
attr title  "tx bitrate, timeavg"
attr unit  bps
scalar StaticHierarchical.gw[4].wlan[1].radio 	radioState:count 	522497
attr interpolationmode  sample-hold
attr title  "radio state (enum), count"
scalar StaticHierarchical.gw[4].udp 	droppedPkBadChecksum:count 	0
attr interpolationmode  none
attr title  "packets dropped (checksum error), count"
scalar StaticHierarchical.gw[4].udp 	droppedPkWrongPort:count 	0
attr interpolationmode  none
attr title  "packets dropped (wrong port), count"
scalar StaticHierarchical.gw[4].udp 	passedUpPk:count 	0
attr interpolationmode  none
attr title  "packets passed up, count"
scalar StaticHierarchical.gw[4].udp 	rcvdPk:count 	0
attr interpolationmode  none
attr source  rcvdPk
attr title  "packets received, count"
scalar StaticHierarchical.gw[4].udp 	rcvdPk:sum(packetBytes) 	0
attr interpolationmode  none
attr source  rcvdPk
attr title  "packets received, sum(packetBytes)"
scalar StaticHierarchical.gw[4].udp 	sentPk:count 	0
attr interpolationmode  none
attr source  sentPk
attr title  "packets sent, count"
scalar StaticHierarchical.gw[4].udp 	sentPk:sum(packetBytes) 	0
attr interpolationmode  none
attr source  sentPk
attr title  "packets sent, sum(packetBytes)"
scalar StaticHierarchical.gw[4].pingApp[0] 	numOutOfOrderArrivals:last 	-nan
attr interpolationmode  none
attr title  "ping out-of-order arrivals, last"
scalar StaticHierarchical.gw[4].pingApp[0] 	pingRxSeq:count 	0
attr interpolationmode  none
attr title  "ping rx seq, count"
scalar StaticHierarchical.gw[4].pingApp[0] 	pingTxSeq:count 	0
attr interpolationmode  none
attr title  "ping tx seq, count"
scalar StaticHierarchical.gw[4].pingApp[0] 	numLost:last 	-nan
attr interpolationmode  none
attr title  "pings lost, last"
statistic StaticHierarchical.gw[4].pingApp[0] 	rtt:histogram
field count 0
field mean -nan
field stddev -nan
field sum 0
field sqrsum 0
field min -nan
field max -nan
attr interpolationmode  none
attr title  "ping round-trip time, histogram"
attr unit  s
bin	-INF	0
bin	-0.5	0
bin	-0.46666666666667	0
bin	-0.43333333333333	0
bin	-0.4	0
bin	-0.36666666666667	0
bin	-0.33333333333333	0
bin	-0.3	0
bin	-0.26666666666667	0
bin	-0.23333333333333	0
bin	-0.2	0
bin	-0.16666666666667	0
bin	-0.13333333333333	0
bin	-0.1	0
bin	-0.066666666666667	0
bin	-0.033333333333333	0
bin	0	0
bin	0.033333333333333	0
bin	0.066666666666667	0
bin	0.1	0
bin	0.13333333333333	0
bin	0.16666666666667	0
bin	0.2	0
bin	0.23333333333333	0
bin	0.26666666666667	0
bin	0.3	0
bin	0.33333333333333	0
bin	0.36666666666667	0
bin	0.4	0
bin	0.43333333333333	0
bin	0.46666666666667	0
bin	0.5	0
scalar StaticHierarchical.gw[4].pingTestApp[0] 	numOutOfOrderArrivals:last 	-nan
attr interpolationmode  none
attr title  "ping out-of-order arrivals, last"
scalar StaticHierarchical.gw[4].pingTestApp[0] 	pingRxSeq:count 	0
attr interpolationmode  none
attr title  "ping rx seq, count"
scalar StaticHierarchical.gw[4].pingTestApp[0] 	pingTxSeq:count 	0
attr interpolationmode  none
attr title  "ping tx seq, count"
scalar StaticHierarchical.gw[4].pingTestApp[0] 	numLost:last 	-nan
attr interpolationmode  none
attr title  "pings lost, last"
statistic StaticHierarchical.gw[4].pingTestApp[0] 	rtt:histogram
field count 0
field mean -nan
field stddev -nan
field sum 0
field sqrsum 0
field min -nan
field max -nan
attr interpolationmode  none
attr title  "ping round-trip time, histogram"
attr unit  s
bin	-INF	0
bin	-0.5	0
bin	-0.46666666666667	0
bin	-0.43333333333333	0
bin	-0.4	0
bin	-0.36666666666667	0
bin	-0.33333333333333	0
bin	-0.3	0
bin	-0.26666666666667	0
bin	-0.23333333333333	0
bin	-0.2	0
bin	-0.16666666666667	0
bin	-0.13333333333333	0
bin	-0.1	0
bin	-0.066666666666667	0
bin	-0.033333333333333	0
bin	0	0
bin	0.033333333333333	0
bin	0.066666666666667	0
bin	0.1	0
bin	0.13333333333333	0
bin	0.16666666666667	0
bin	0.2	0
bin	0.23333333333333	0
bin	0.26666666666667	0
bin	0.3	0
bin	0.33333333333333	0
bin	0.36666666666667	0
bin	0.4	0
bin	0.43333333333333	0
bin	0.46666666666667	0
bin	0.5	0
scalar StaticHierarchical.host[0].networkLayer.arp 	failedARPResolution:count 	0
attr title  "ARP failed resolutions, count"
scalar StaticHierarchical.host[0].networkLayer.arp 	completedARPResolution:count 	62
attr title  "ARP completed resolutions, count"
scalar StaticHierarchical.host[0].networkLayer.arp 	initiatedARPResolution:count 	11
attr title  "ARP initiated resolutions, count"
scalar StaticHierarchical.host[0].networkLayer.arp 	sentReply:count 	8
attr title  "ARP replies sent, count"
scalar StaticHierarchical.host[0].networkLayer.arp 	sentReq:count 	11
attr title  "ARP request sent, count"
scalar StaticHierarchical.host[0].lo0.lo 	droppedPkBitError:count 	0
attr interpolationmode  none
attr source  dropPkBitError
attr title  "packets dropped/bit error, count"
scalar StaticHierarchical.host[0].lo0.lo 	droppedPkBitError:sum(packetBytes) 	0
attr interpolationmode  none
attr source  dropPkBitError
attr title  "packets dropped/bit error, sum(packetBytes)"
scalar StaticHierarchical.host[0].lo0.lo 	rcvdPkFromHL:count 	0
attr interpolationmode  none
attr source  packetReceivedFromUpper
attr title  "packets received from higher layer, count"
scalar StaticHierarchical.host[0].lo0.lo 	rcvdPkFromHL:sum(packetBytes) 	0
attr interpolationmode  none
attr source  packetReceivedFromUpper
attr title  "packets received from higher layer, sum(packetBytes)"
scalar StaticHierarchical.host[0].lo0.lo 	passedUpPk:count 	0
attr interpolationmode  none
attr source  packetSentToUpper
attr title  "packets passed to higher layer, count"
scalar StaticHierarchical.host[0].lo0.lo 	passedUpPk:sum(packetBytes) 	0
attr interpolationmode  none
attr source  packetSentToUpper
attr title  "packets passed to higher layer, sum(packetBytes)"
scalar StaticHierarchical.host[0].wlan[0].mgmt 	dataQueueLen:max 	0
attr interpolationmode  sample-hold
attr title  "data queue length, max"
scalar StaticHierarchical.host[0].wlan[0].mgmt 	dataQueueLen:timeavg 	0
attr interpolationmode  sample-hold
attr title  "data queue length, timeavg"
scalar StaticHierarchical.host[0].wlan[0].mgmt 	dropPkByQueue:count 	0
attr interpolationmode  none
attr source  dropPkByQueue
attr title  "packets dropped by queue, count"
scalar StaticHierarchical.host[0].wlan[0].mgmt 	dropPkByQueue:sum(packetBytes) 	0
attr interpolationmode  none
attr source  dropPkByQueue
attr title  "packets dropped by queue, sum(packetBytes)"
scalar StaticHierarchical.host[0].wlan[0].mac 	"number of received packets" 	9196
scalar StaticHierarchical.host[0].wlan[0].mac 	"number of collisions" 	607
scalar StaticHierarchical.host[0].wlan[0].mac 	"number of internal collisions" 	0
scalar StaticHierarchical.host[0].wlan[0].mac 	"number of retry for AC 0" 	146
scalar StaticHierarchical.host[0].wlan[0].mac 	"sent and received bits" 	13997680
scalar StaticHierarchical.host[0].wlan[0].mac 	"sent packet within AC 0" 	9210
scalar StaticHierarchical.host[0].wlan[0].mac 	"sent in TXOP " 	0
scalar StaticHierarchical.host[0].wlan[0].mac 	"sentWithoutRetry AC 0" 	9134
scalar StaticHierarchical.host[0].wlan[0].mac 	"numGivenUp AC 0" 	0
scalar StaticHierarchical.host[0].wlan[0].mac 	"numDropped AC 0" 	0
scalar StaticHierarchical.host[0].wlan[0].mac 	rcvdPkFromHL:count 	9222
attr interpolationmode  none
attr source  packetReceivedFromUpper
attr title  "packets received from higher layer, count"
scalar StaticHierarchical.host[0].wlan[0].mac 	rcvdPkFromHL:sum(packetBytes) 	1749900
attr interpolationmode  none
attr source  packetReceivedFromUpper
attr title  "packets received from higher layer, sum(packetBytes)"
scalar StaticHierarchical.host[0].wlan[0].mac 	passedUpPk:count 	9247
attr interpolationmode  none
attr source  packetSentToUpper
attr title  "packets passed to higher layer, count"
scalar StaticHierarchical.host[0].wlan[0].mac 	passedUpPk:sum(packetBytes) 	1748170
attr interpolationmode  none
attr source  packetSentToUpper
attr title  "packets passed to higher layer, sum(packetBytes)"
scalar StaticHierarchical.host[0].wlan[0].mac 	rcvdPkFromLL:count 	138555
attr interpolationmode  none
attr source  packetReceivedFromLower
attr title  "packets received from lower layer, count"
scalar StaticHierarchical.host[0].wlan[0].mac 	rcvdPkFromLL:sum(packetBytes) 	14185106
attr interpolationmode  none
attr source  packetReceivedFromLower
attr title  "packets received from lower layer, sum(packetBytes)"
scalar StaticHierarchical.host[0].wlan[0].mac 	sentDownPk:count 	18563
attr interpolationmode  none
attr source  packetSentToLower
attr title  "packets sent to lower layer, count"
scalar StaticHierarchical.host[0].wlan[0].mac 	sentDownPk:sum(packetBytes) 	1906194
attr interpolationmode  none
attr source  packetSentToLower
attr title  "packets sent to lower layer, sum(packetBytes)"
scalar StaticHierarchical.host[0].wlan[0].radio 	lossRate:min 	0
attr interpolationmode  backward-sample-hold
attr title  "packet loss rate, min"
scalar StaticHierarchical.host[0].wlan[0].radio 	lossRate:max 	0.12
attr interpolationmode  backward-sample-hold
attr title  "packet loss rate, max"
scalar StaticHierarchical.host[0].wlan[0].radio 	lossRate:timeavg 	0.0043972466340552
attr interpolationmode  backward-sample-hold
attr title  "packet loss rate, timeavg"
statistic StaticHierarchical.host[0].wlan[0].radio 	channelNo:histogram
field count 1
field mean 0
field stddev -nan
field sum 0
field sqrsum 0
field min 0
field max 0
attr interpolationmode  sample-hold
attr title  "channel no, histogram"
bin	-INF	0
bin	-0.5	0
bin	-0.46666666666667	0
bin	-0.43333333333333	0
bin	-0.4	0
bin	-0.36666666666667	0
bin	-0.33333333333333	0
bin	-0.3	0
bin	-0.26666666666667	0
bin	-0.23333333333333	0
bin	-0.2	0
bin	-0.16666666666667	0
bin	-0.13333333333333	0
bin	-0.1	0
bin	-0.066666666666667	0
bin	-0.033333333333333	0
bin	0	1
bin	0.033333333333333	0
bin	0.066666666666667	0
bin	0.1	0
bin	0.13333333333333	0
bin	0.16666666666667	0
bin	0.2	0
bin	0.23333333333333	0
bin	0.26666666666667	0
bin	0.3	0
bin	0.33333333333333	0
bin	0.36666666666667	0
bin	0.4	0
bin	0.43333333333333	0
bin	0.46666666666667	0
bin	0.5	0
scalar StaticHierarchical.host[0].wlan[0].radio 	bitrate:min 	11000000
attr interpolationmode  sample-hold
attr title  "tx bitrate, min"
attr unit  bps
scalar StaticHierarchical.host[0].wlan[0].radio 	bitrate:max 	11000000
attr interpolationmode  sample-hold
attr title  "tx bitrate, max"
attr unit  bps
scalar StaticHierarchical.host[0].wlan[0].radio 	bitrate:timeavg 	11000000
attr interpolationmode  sample-hold
attr title  "tx bitrate, timeavg"
attr unit  bps
scalar StaticHierarchical.host[0].wlan[0].radio 	radioState:count 	314264
attr interpolationmode  sample-hold
attr title  "radio state (enum), count"
scalar StaticHierarchical.host[0].pingApp[0] 	numOutOfOrderArrivals:last 	-nan
attr interpolationmode  none
attr title  "ping out-of-order arrivals, last"
scalar StaticHierarchical.host[0].pingApp[0] 	pingRxSeq:count 	0
attr interpolationmode  none
attr title  "ping rx seq, count"
scalar StaticHierarchical.host[0].pingApp[0] 	pingTxSeq:count 	0
attr interpolationmode  none
attr title  "ping tx seq, count"
scalar StaticHierarchical.host[0].pingApp[0] 	numLost:last 	-nan
attr interpolationmode  none
attr title  "pings lost, last"
statistic StaticHierarchical.host[0].pingApp[0] 	rtt:histogram
field count 0
field mean -nan
field stddev -nan
field sum 0
field sqrsum 0
field min -nan
field max -nan
attr interpolationmode  none
attr title  "ping round-trip time, histogram"
attr unit  s
bin	-INF	0
bin	-0.5	0
bin	-0.46666666666667	0
bin	-0.43333333333333	0
bin	-0.4	0
bin	-0.36666666666667	0
bin	-0.33333333333333	0
bin	-0.3	0
bin	-0.26666666666667	0
bin	-0.23333333333333	0
bin	-0.2	0
bin	-0.16666666666667	0
bin	-0.13333333333333	0
bin	-0.1	0
bin	-0.066666666666667	0
bin	-0.033333333333333	0
bin	0	0
bin	0.033333333333333	0
bin	0.066666666666667	0
bin	0.1	0
bin	0.13333333333333	0
bin	0.16666666666667	0
bin	0.2	0
bin	0.23333333333333	0
bin	0.26666666666667	0
bin	0.3	0
bin	0.33333333333333	0
bin	0.36666666666667	0
bin	0.4	0
bin	0.43333333333333	0
bin	0.46666666666667	0
bin	0.5	0
scalar StaticHierarchical.host[0].pingTestApp[0] 	"Pings sent" 	2297
[...]
field stddev 0.00026589009858737
field sum 2.6201437579999
field sqrsum 0.0031473829212088
field min 0.00104708
field max 0.005048
attr interpolationmode  none
attr title  "ping round-trip time, histogram"
attr unit  s
bin	-INF	0
bin	0.0002085715	0
bin	0.00032424596666667	0
bin	0.00043992043333333	0
bin	0.0005555949	0
bin	0.00067126936666667	0
bin	0.00078694383333333	0
bin	0.0009026183	0
bin	0.0010182927666667	2101
bin	0.0011339672333333	12
bin	0.0012496417	31
bin	0.0013653161666667	16
bin	0.0014809906333333	27
bin	0.0015966651	25
bin	0.0017123395666667	17
bin	0.0018280140333333	17
bin	0.0019436885	10
bin	0.0020593629666667	5
bin	0.0021750374333333	9
bin	0.0022907119	2
bin	0.0024063863666667	13
bin	0.0025220608333333	5
bin	0.0026377353	0
bin	0.0027534097666667	1
bin	0.0028690842333333	0
bin	0.0029847587	0
bin	0.0031004331666667	2
bin	0.0032161076333333	2
bin	0.0033317821	0
bin	0.0034474565666667	1
bin	0.0035631310333333	1
bin	0.0036788055	3
scalar StaticHierarchical.host[38].networkLayer.arp 	failedARPResolution:count 	0
attr title  "ARP failed resolutions, count"
scalar StaticHierarchical.host[38].networkLayer.arp 	completedARPResolution:count 	54
attr title  "ARP completed resolutions, count"
scalar StaticHierarchical.host[38].networkLayer.arp 	initiatedARPResolution:count 	1
attr title  "ARP initiated resolutions, count"
scalar StaticHierarchical.host[38].networkLayer.arp 	sentReply:count 	11
attr title  "ARP replies sent, count"
scalar StaticHierarchical.host[38].networkLayer.arp 	sentReq:count 	1
attr title  "ARP request sent, count"
scalar StaticHierarchical.host[38].lo0.lo 	droppedPkBitError:count 	0
attr interpolationmode  none
attr source  dropPkBitError
attr title  "packets dropped/bit error, count"
scalar StaticHierarchical.host[38].lo0.lo 	droppedPkBitError:sum(packetBytes) 	0
attr interpolationmode  none
attr source  dropPkBitError
attr title  "packets dropped/bit error, sum(packetBytes)"
scalar StaticHierarchical.host[38].lo0.lo 	rcvdPkFromHL:count 	0
attr interpolationmode  none
attr source  packetReceivedFromUpper
attr title  "packets received from higher layer, count"
scalar StaticHierarchical.host[38].lo0.lo 	rcvdPkFromHL:sum(packetBytes) 	0
attr interpolationmode  none
attr source  packetReceivedFromUpper
attr title  "packets received from higher layer, sum(packetBytes)"
scalar StaticHierarchical.host[38].lo0.lo 	passedUpPk:count 	0
attr interpolationmode  none
attr source  packetSentToUpper
attr title  "packets passed to higher layer, count"
scalar StaticHierarchical.host[38].lo0.lo 	passedUpPk:sum(packetBytes) 	0
attr interpolationmode  none
attr source  packetSentToUpper
attr title  "packets passed to higher layer, sum(packetBytes)"
scalar StaticHierarchical.host[38].wlan[0].mgmt 	dataQueueLen:max 	0
attr interpolationmode  sample-hold
attr title  "data queue length, max"
scalar StaticHierarchical.host[38].wlan[0].mgmt 	dataQueueLen:timeavg 	0
attr interpolationmode  sample-hold
attr title  "data queue length, timeavg"
scalar StaticHierarchical.host[38].wlan[0].mgmt 	dropPkByQueue:count 	0
attr interpolationmode  none
attr source  dropPkByQueue
attr title  "packets dropped by queue, count"
scalar StaticHierarchical.host[38].wlan[0].mgmt 	dropPkByQueue:sum(packetBytes) 	0
attr interpolationmode  none
attr source  dropPkByQueue
attr title  "packets dropped by queue, sum(packetBytes)"
scalar StaticHierarchical.host[38].wlan[0].mac 	"number of received packets" 	4582
scalar StaticHierarchical.host[38].wlan[0].mac 	"number of collisions" 	658
scalar StaticHierarchical.host[38].wlan[0].mac 	"number of internal collisions" 	0
scalar StaticHierarchical.host[38].wlan[0].mac 	"number of retry for AC 0" 	96
scalar StaticHierarchical.host[38].wlan[0].mac 	"sent and received bits" 	6994160
scalar StaticHierarchical.host[38].wlan[0].mac 	"sent packet within AC 0" 	4608
scalar StaticHierarchical.host[38].wlan[0].mac 	"sent in TXOP " 	0
scalar StaticHierarchical.host[38].wlan[0].mac 	"sentWithoutRetry AC 0" 	4571
scalar StaticHierarchical.host[38].wlan[0].mac 	"numGivenUp AC 0" 	0
scalar StaticHierarchical.host[38].wlan[0].mac 	"numDropped AC 0" 	0
scalar StaticHierarchical.host[38].wlan[0].mac 	rcvdPkFromHL:count 	4609
attr interpolationmode  none
attr source  packetReceivedFromUpper
attr title  "packets received from higher layer, count"
scalar StaticHierarchical.host[38].wlan[0].mac 	rcvdPkFromHL:sum(packetBytes) 	874270
attr interpolationmode  none
attr source  packetReceivedFromUpper
attr title  "packets received from higher layer, sum(packetBytes)"
scalar StaticHierarchical.host[38].wlan[0].mac 	passedUpPk:count 	4644
attr interpolationmode  none
attr source  packetSentToUpper
attr title  "packets passed to higher layer, count"
scalar StaticHierarchical.host[38].wlan[0].mac 	passedUpPk:sum(packetBytes) 	874800
attr interpolationmode  none
attr source  packetSentToUpper
attr title  "packets passed to higher layer, sum(packetBytes)"
scalar StaticHierarchical.host[38].wlan[0].mac 	rcvdPkFromLL:count 	147775
attr interpolationmode  none
attr source  packetReceivedFromLower
attr title  "packets received from lower layer, count"
scalar StaticHierarchical.host[38].wlan[0].mac 	rcvdPkFromLL:sum(packetBytes) 	15142210
attr interpolationmode  none
attr source  packetReceivedFromLower
attr title  "packets received from lower layer, sum(packetBytes)"
scalar StaticHierarchical.host[38].wlan[0].mac 	sentDownPk:count 	9287
attr interpolationmode  none
attr source  packetSentToLower
attr title  "packets sent to lower layer, count"
scalar StaticHierarchical.host[38].wlan[0].mac 	sentDownPk:sum(packetBytes) 	956658
attr interpolationmode  none
attr source  packetSentToLower
attr title  "packets sent to lower layer, sum(packetBytes)"
scalar StaticHierarchical.host[38].wlan[0].radio 	lossRate:min 	0
attr interpolationmode  backward-sample-hold
attr title  "packet loss rate, min"
scalar StaticHierarchical.host[38].wlan[0].radio 	lossRate:max 	0.16
attr interpolationmode  backward-sample-hold
attr title  "packet loss rate, max"
scalar StaticHierarchical.host[38].wlan[0].radio 	lossRate:timeavg 	0.0044547568915218
attr interpolationmode  backward-sample-hold
attr title  "packet loss rate, timeavg"
statistic StaticHierarchical.host[38].wlan[0].radio 	channelNo:histogram
field count 1
field mean 4
field stddev -nan
field sum 4
field sqrsum 16
field min 4
field max 4
attr interpolationmode  sample-hold
attr title  "channel no, histogram"
bin	-INF	0
bin	3	0
bin	4	1
bin	5	0
scalar StaticHierarchical.host[38].wlan[0].radio 	bitrate:min 	11000000
attr interpolationmode  sample-hold
attr title  "tx bitrate, min"
attr unit  bps
scalar StaticHierarchical.host[38].wlan[0].radio 	bitrate:max 	11000000
attr interpolationmode  sample-hold
attr title  "tx bitrate, max"
attr unit  bps
scalar StaticHierarchical.host[38].wlan[0].radio 	bitrate:timeavg 	11000000
attr interpolationmode  sample-hold
attr title  "tx bitrate, timeavg"
attr unit  bps
scalar StaticHierarchical.host[38].wlan[0].radio 	radioState:count 	314089
attr interpolationmode  sample-hold
attr title  "radio state (enum), count"
scalar StaticHierarchical.host[38].pingApp[0] 	numOutOfOrderArrivals:last 	-nan
attr interpolationmode  none
attr title  "ping out-of-order arrivals, last"
scalar StaticHierarchical.host[38].pingApp[0] 	pingRxSeq:count 	0
attr interpolationmode  none
attr title  "ping rx seq, count"
scalar StaticHierarchical.host[38].pingApp[0] 	pingTxSeq:count 	0
attr interpolationmode  none
attr title  "ping tx seq, count"
scalar StaticHierarchical.host[38].pingApp[0] 	numLost:last 	-nan
attr interpolationmode  none
attr title  "pings lost, last"
statistic StaticHierarchical.host[38].pingApp[0] 	rtt:histogram
field count 0
field mean -nan
field stddev -nan
field sum 0
field sqrsum 0
field min -nan
field max -nan
attr interpolationmode  none
attr title  "ping round-trip time, histogram"
attr unit  s
bin	-INF	0
bin	-0.5	0
bin	-0.46666666666667	0
bin	-0.43333333333333	0
bin	-0.4	0
bin	-0.36666666666667	0
bin	-0.33333333333333	0
bin	-0.3	0
bin	-0.26666666666667	0
bin	-0.23333333333333	0
bin	-0.2	0
bin	-0.16666666666667	0
bin	-0.13333333333333	0
bin	-0.1	0
bin	-0.066666666666667	0
bin	-0.033333333333333	0
bin	0	0
bin	0.033333333333333	0
bin	0.066666666666667	0
bin	0.1	0
bin	0.13333333333333	0
bin	0.16666666666667	0
bin	0.2	0
bin	0.23333333333333	0
bin	0.26666666666667	0
bin	0.3	0
bin	0.33333333333333	0
bin	0.36666666666667	0
bin	0.4	0
bin	0.43333333333333	0
bin	0.46666666666667	0
bin	0.5	0
scalar StaticHierarchical.host[38].pingTestApp[0] 	"Pings sent" 	2297
scalar StaticHierarchical.host[38].pingTestApp[0] 	"ping loss rate (%)" 	0.69656073138877
scalar StaticHierarchical.host[38].pingTestApp[0] 	"ping out-of-order rate (%)" 	0
scalar StaticHierarchical.host[38].pingTestApp[0] 	numOutOfOrderArrivals:last 	-nan
attr interpolationmode  none
attr title  "ping out-of-order arrivals, last"
scalar StaticHierarchical.host[38].pingTestApp[0] 	pingRxSeq:count 	2281
attr interpolationmode  none
attr title  "ping rx seq, count"
scalar StaticHierarchical.host[38].pingTestApp[0] 	pingTxSeq:count 	2297
attr interpolationmode  none
attr title  "ping tx seq, count"
scalar StaticHierarchical.host[38].pingTestApp[0] 	numLost:last 	16
attr interpolationmode  none
attr title  "pings lost, last"
statistic StaticHierarchical.host[38].pingTestApp[0] 	rtt:histogram
field count 2281
field mean 0.0098685116773344
field stddev 0.021348967990354
field sum 22.510075136
field sqrsum 1.2613157694345
field min 0.005361468
field max 0.981254404
attr interpolationmode  none
attr title  "ping round-trip time, histogram"
attr unit  s
bin	-INF	0
bin	-0.0109522655	0
bin	-0.0087737375666667	0
bin	-0.0065952096333333	0
bin	-0.0044166817	0
bin	-0.0022381537666667	0
bin	-5.9625833333337e-05	0
bin	0.0021189021	0
bin	0.0042974300333333	1209
bin	0.0064759579666667	276
bin	0.0086544859	199
bin	0.010833013833333	149
bin	0.013011541766667	101
bin	0.0151900697	90
bin	0.017368597633333	68
bin	0.019547125566667	53
bin	0.0217256535	35
bin	0.023904181433333	25
bin	0.026082709366667	20
bin	0.0282612373	18
bin	0.030439765233333	10
bin	0.032618293166667	10
bin	0.0347968211	3
bin	0.036975349033333	4
bin	0.039153876966667	4
bin	0.0413324049	0
bin	0.043510932833333	2
bin	0.045689460766667	1
bin	0.0478679887	0
bin	0.050046516633333	0
bin	0.052225044566667	1
bin	0.0544035725	3
scalar StaticHierarchical.host[39].networkLayer.arp 	failedARPResolution:count 	0
attr title  "ARP failed resolutions, count"
scalar StaticHierarchical.host[39].networkLayer.arp 	completedARPResolution:count 	48
attr title  "ARP completed resolutions, count"
scalar StaticHierarchical.host[39].networkLayer.arp 	initiatedARPResolution:count 	0
attr title  "ARP initiated resolutions, count"
scalar StaticHierarchical.host[39].networkLayer.arp 	sentReply:count 	6
attr title  "ARP replies sent, count"
scalar StaticHierarchical.host[39].networkLayer.arp 	sentReq:count 	0
attr title  "ARP request sent, count"
scalar StaticHierarchical.host[39].lo0.lo 	droppedPkBitError:count 	0
attr interpolationmode  none
attr source  dropPkBitError
attr title  "packets dropped/bit error, count"
scalar StaticHierarchical.host[39].lo0.lo 	droppedPkBitError:sum(packetBytes) 	0
attr interpolationmode  none
attr source  dropPkBitError
attr title  "packets dropped/bit error, sum(packetBytes)"
scalar StaticHierarchical.host[39].lo0.lo 	rcvdPkFromHL:count 	0
attr interpolationmode  none
attr source  packetReceivedFromUpper
attr title  "packets received from higher layer, count"
scalar StaticHierarchical.host[39].lo0.lo 	rcvdPkFromHL:sum(packetBytes) 	0
attr interpolationmode  none
attr source  packetReceivedFromUpper
attr title  "packets received from higher layer, sum(packetBytes)"
scalar StaticHierarchical.host[39].lo0.lo 	passedUpPk:count 	0
attr interpolationmode  none
attr source  packetSentToUpper
attr title  "packets passed to higher layer, count"
scalar StaticHierarchical.host[39].lo0.lo 	passedUpPk:sum(packetBytes) 	0
attr interpolationmode  none
attr source  packetSentToUpper
attr title  "packets passed to higher layer, sum(packetBytes)"
scalar StaticHierarchical.host[39].wlan[0].mgmt 	dataQueueLen:max 	0
attr interpolationmode  sample-hold
attr title  "data queue length, max"
scalar StaticHierarchical.host[39].wlan[0].mgmt 	dataQueueLen:timeavg 	0
attr interpolationmode  sample-hold
attr title  "data queue length, timeavg"
scalar StaticHierarchical.host[39].wlan[0].mgmt 	dropPkByQueue:count 	0
attr interpolationmode  none
attr source  dropPkByQueue
attr title  "packets dropped by queue, count"
scalar StaticHierarchical.host[39].wlan[0].mgmt 	dropPkByQueue:sum(packetBytes) 	0
attr interpolationmode  none
attr source  dropPkByQueue
attr title  "packets dropped by queue, sum(packetBytes)"
scalar StaticHierarchical.host[39].wlan[0].mac 	"number of received packets" 	4586
scalar StaticHierarchical.host[39].wlan[0].mac 	"number of collisions" 	360
scalar StaticHierarchical.host[39].wlan[0].mac 	"number of internal collisions" 	0
scalar StaticHierarchical.host[39].wlan[0].mac 	"number of retry for AC 0" 	464
scalar StaticHierarchical.host[39].wlan[0].mac 	"sent and received bits" 	6992320
scalar StaticHierarchical.host[39].wlan[0].mac 	"sent packet within AC 0" 	4604
scalar StaticHierarchical.host[39].wlan[0].mac 	"sent in TXOP " 	0
scalar StaticHierarchical.host[39].wlan[0].mac 	"sentWithoutRetry AC 0" 	4440
scalar StaticHierarchical.host[39].wlan[0].mac 	"numGivenUp AC 0" 	0
scalar StaticHierarchical.host[39].wlan[0].mac 	"numDropped AC 0" 	0
scalar StaticHierarchical.host[39].wlan[0].mac 	rcvdPkFromHL:count 	4604
attr interpolationmode  none
attr source  packetReceivedFromUpper
attr title  "packets received from higher layer, count"
scalar StaticHierarchical.host[39].wlan[0].mac 	rcvdPkFromHL:sum(packetBytes) 	874040
attr interpolationmode  none
attr source  packetReceivedFromUpper
attr title  "packets received from higher layer, sum(packetBytes)"
scalar StaticHierarchical.host[39].wlan[0].mac 	passedUpPk:count 	4642
attr interpolationmode  none
attr source  packetSentToUpper
attr title  "packets passed to higher layer, count"
scalar StaticHierarchical.host[39].wlan[0].mac 	passedUpPk:sum(packetBytes) 	875260
attr interpolationmode  none
attr source  packetSentToUpper
attr title  "packets passed to higher layer, sum(packetBytes)"
scalar StaticHierarchical.host[39].wlan[0].mac 	rcvdPkFromLL:count 	101271
attr interpolationmode  none
attr source  packetReceivedFromLower
attr title  "packets received from lower layer, count"
scalar StaticHierarchical.host[39].wlan[0].mac 	rcvdPkFromLL:sum(packetBytes) 	10343450
attr interpolationmode  none
attr source  packetReceivedFromLower
attr title  "packets received from lower layer, sum(packetBytes)"
scalar StaticHierarchical.host[39].wlan[0].mac 	sentDownPk:count 	9654
attr interpolationmode  none
attr source  packetSentToLower
attr title  "packets sent to lower layer, count"
scalar StaticHierarchical.host[39].wlan[0].mac 	sentDownPk:sum(packetBytes) 	1026404
attr interpolationmode  none
attr source  packetSentToLower
attr title  "packets sent to lower layer, sum(packetBytes)"
scalar StaticHierarchical.host[39].wlan[0].radio 	lossRate:min 	0
attr interpolationmode  backward-sample-hold
attr title  "packet loss rate, min"
scalar StaticHierarchical.host[39].wlan[0].radio 	lossRate:max 	0.14
attr interpolationmode  backward-sample-hold
attr title  "packet loss rate, max"
scalar StaticHierarchical.host[39].wlan[0].radio 	lossRate:timeavg 	0.0035022480449041
attr interpolationmode  backward-sample-hold
attr title  "packet loss rate, timeavg"
statistic StaticHierarchical.host[39].wlan[0].radio 	channelNo:histogram
field count 1
field mean 4
field stddev -nan
field sum 4
field sqrsum 16
field min 4
field max 4
attr interpolationmode  sample-hold
attr title  "channel no, histogram"
bin	-INF	0
bin	3	0
bin	4	1
bin	5	0
scalar StaticHierarchical.host[39].wlan[0].radio 	bitrate:min 	11000000
attr interpolationmode  sample-hold
attr title  "tx bitrate, min"
attr unit  bps
scalar StaticHierarchical.host[39].wlan[0].radio 	bitrate:max 	11000000
attr interpolationmode  sample-hold
attr title  "tx bitrate, max"
attr unit  bps
scalar StaticHierarchical.host[39].wlan[0].radio 	bitrate:timeavg 	11000000
attr interpolationmode  sample-hold
attr title  "tx bitrate, timeavg"
attr unit  bps
scalar StaticHierarchical.host[39].wlan[0].radio 	radioState:count 	222464
attr interpolationmode  sample-hold
attr title  "radio state (enum), count"
scalar StaticHierarchical.host[39].pingApp[0] 	numOutOfOrderArrivals:last 	-nan
attr interpolationmode  none
attr title  "ping out-of-order arrivals, last"
scalar StaticHierarchical.host[39].pingApp[0] 	pingRxSeq:count 	0
attr interpolationmode  none
attr title  "ping rx seq, count"
scalar StaticHierarchical.host[39].pingApp[0] 	pingTxSeq:count 	0
attr interpolationmode  none
attr title  "ping tx seq, count"
scalar StaticHierarchical.host[39].pingApp[0] 	numLost:last 	-nan
attr interpolationmode  none
attr title  "pings lost, last"
statistic StaticHierarchical.host[39].pingApp[0] 	rtt:histogram
field count 0
field mean -nan
field stddev -nan
field sum 0
field sqrsum 0
field min -nan
field max -nan
attr interpolationmode  none
attr title  "ping round-trip time, histogram"
attr unit  s
bin	-INF	0
bin	-0.5	0
bin	-0.46666666666667	0
bin	-0.43333333333333	0
bin	-0.4	0
bin	-0.36666666666667	0
bin	-0.33333333333333	0
bin	-0.3	0
bin	-0.26666666666667	0
bin	-0.23333333333333	0
bin	-0.2	0
bin	-0.16666666666667	0
bin	-0.13333333333333	0
bin	-0.1	0
bin	-0.066666666666667	0
bin	-0.033333333333333	0
bin	0	0
bin	0.033333333333333	0
bin	0.066666666666667	0
bin	0.1	0
bin	0.13333333333333	0
bin	0.16666666666667	0
bin	0.2	0
bin	0.23333333333333	0
bin	0.26666666666667	0
bin	0.3	0
bin	0.33333333333333	0
bin	0.36666666666667	0
bin	0.4	0
bin	0.43333333333333	0
bin	0.46666666666667	0
bin	0.5	0
scalar StaticHierarchical.host[39].pingTestApp[0] 	"Pings sent" 	2298
scalar StaticHierarchical.host[39].pingTestApp[0] 	"ping loss rate (%)" 	0.52219321148825
scalar StaticHierarchical.host[39].pingTestApp[0] 	"ping out-of-order rate (%)" 	0
scalar StaticHierarchical.host[39].pingTestApp[0] 	numOutOfOrderArrivals:last 	-nan
attr interpolationmode  none
attr title  "ping out-of-order arrivals, last"
scalar StaticHierarchical.host[39].pingTestApp[0] 	pingRxSeq:count 	2286
attr interpolationmode  none
attr title  "ping rx seq, count"
scalar StaticHierarchical.host[39].pingTestApp[0] 	pingTxSeq:count 	2298
attr interpolationmode  none
attr title  "ping tx seq, count"
scalar StaticHierarchical.host[39].pingTestApp[0] 	numLost:last 	12
attr interpolationmode  none
attr title  "pings lost, last"
statistic StaticHierarchical.host[39].pingTestApp[0] 	rtt:histogram
field count 2286
field mean 0.0068710142637794
field stddev 0.0052122248515649
field sum 15.707138607
field sqrsum 0.17000122627083
field min 0.003954036
field max 0.048775415
attr interpolationmode  none
attr title  "ping round-trip time, histogram"
attr unit  s
bin	-INF	0
bin	-0.0089117945	0
bin	-0.0071908715	0
bin	-0.0054699485	0
bin	-0.0037490255	0
bin	-0.0020281025	0
bin	-0.0003071795	0
bin	0.0014137435	0
bin	0.0031346665	1318
bin	0.0048555895	281
bin	0.0065765125	174
bin	0.0082974355	132
bin	0.0100183585	91
bin	0.0117392815	73
bin	0.0134602045	41
bin	0.0151811275	44
bin	0.0169020505	30
bin	0.0186229735	17
bin	0.0203438965	25
bin	0.0220648195	20
bin	0.0237857425	9
bin	0.0255066655	5
bin	0.0272275885	5
bin	0.0289485115	6
bin	0.0306694345	3
bin	0.0323903575	1
bin	0.0341112805	3
bin	0.0358322035	2
bin	0.0375531265	2
bin	0.0392740495	0
bin	0.0409949725	0
bin	0.0427158955	4
scalar StaticHierarchical.globalObserver.globalStatistics 	"GlobalStatistics: Simulation Time" 	900
scalar StaticHierarchical.globalObserver.globalStatistics 	"Vector: GlobalDhtTestMap: Number of stored DHT entries.mean" 	0
scalar StaticHierarchical.globalObserver.globalStatistics 	"Vector: GlobalNodeList: Number of nodes.mean" 	0
