version 2
run ThreeClustersStatic-0-20190412-12:04:37-4391
attr configname ThreeClustersStatic
attr datetime 20190412-12:04:37
attr experiment ThreeClustersStatic
attr inifile DHT-basedStatic.ini
attr iterationvars ""
attr iterationvars2 $repetition=0
attr measurement ""
attr network p2psipmanet.simulations.RyanStatic.StaticHierarchical
attr processid 4391
attr repetition 0
attr replication #0
attr resultdir results
attr runnumber 0
attr seedset 626404

scalar StaticHierarchical.gw[0].networkLayer.arp 	failedARPResolution:count 	0
attr title  "ARP failed resolutions, count"
scalar StaticHierarchical.gw[0].networkLayer.arp 	completedARPResolution:count 	85
attr title  "ARP completed resolutions, count"
scalar StaticHierarchical.gw[0].networkLayer.arp 	initiatedARPResolution:count 	46
attr title  "ARP initiated resolutions, count"
scalar StaticHierarchical.gw[0].networkLayer.arp 	sentReply:count 	13
attr title  "ARP replies sent, count"
scalar StaticHierarchical.gw[0].networkLayer.arp 	sentReq:count 	47
attr title  "ARP request sent, count"
scalar StaticHierarchical.gw[0].lo0.lo 	droppedPkBitError:count 	0
attr interpolationmode  none
attr source  dropPkBitError
attr title  "packets dropped/bit error, count"
scalar StaticHierarchical.gw[0].lo0.lo 	droppedPkBitError:sum(packetBytes) 	0
attr interpolationmode  none
attr source  dropPkBitError
attr title  "packets dropped/bit error, sum(packetBytes)"
scalar StaticHierarchical.gw[0].lo0.lo 	rcvdPkFromHL:count 	0
attr interpolationmode  none
attr source  packetReceivedFromUpper
attr title  "packets received from higher layer, count"
scalar StaticHierarchical.gw[0].lo0.lo 	rcvdPkFromHL:sum(packetBytes) 	0
attr interpolationmode  none
attr source  packetReceivedFromUpper
attr title  "packets received from higher layer, sum(packetBytes)"
scalar StaticHierarchical.gw[0].lo0.lo 	passedUpPk:count 	0
attr interpolationmode  none
attr source  packetSentToUpper
attr title  "packets passed to higher layer, count"
scalar StaticHierarchical.gw[0].lo0.lo 	passedUpPk:sum(packetBytes) 	0
attr interpolationmode  none
attr source  packetSentToUpper
attr title  "packets passed to higher layer, sum(packetBytes)"
scalar StaticHierarchical.gw[0].wlan[0].mgmt 	dataQueueLen:max 	1
attr interpolationmode  sample-hold
attr title  "data queue length, max"
scalar StaticHierarchical.gw[0].wlan[0].mgmt 	dataQueueLen:timeavg 	4.34811e-06
attr interpolationmode  sample-hold
attr title  "data queue length, timeavg"
scalar StaticHierarchical.gw[0].wlan[0].mgmt 	dropPkByQueue:count 	0
attr interpolationmode  none
attr source  dropPkByQueue
attr title  "packets dropped by queue, count"
scalar StaticHierarchical.gw[0].wlan[0].mgmt 	dropPkByQueue:sum(packetBytes) 	0
attr interpolationmode  none
attr source  dropPkByQueue
attr title  "packets dropped by queue, sum(packetBytes)"
scalar StaticHierarchical.gw[0].wlan[0].mac 	"number of received packets" 	29914
scalar StaticHierarchical.gw[0].wlan[0].mac 	"number of collisions" 	1551
scalar StaticHierarchical.gw[0].wlan[0].mac 	"number of internal collisions" 	0
scalar StaticHierarchical.gw[0].wlan[0].mac 	"number of retry for AC 0" 	107
scalar StaticHierarchical.gw[0].wlan[0].mac 	"sent and received bits" 	45217440
scalar StaticHierarchical.gw[0].wlan[0].mac 	"sent packet within AC 0" 	29738
scalar StaticHierarchical.gw[0].wlan[0].mac 	"sent in TXOP " 	0
scalar StaticHierarchical.gw[0].wlan[0].mac 	"sentWithoutRetry AC 0" 	29657
scalar StaticHierarchical.gw[0].wlan[0].mac 	"numGivenUp AC 0" 	0
scalar StaticHierarchical.gw[0].wlan[0].mac 	"numDropped AC 0" 	0
scalar StaticHierarchical.gw[0].wlan[0].mac 	rcvdPkFromHL:count 	29778
attr interpolationmode  none
attr source  packetReceivedFromUpper
attr title  "packets received from higher layer, count"
scalar StaticHierarchical.gw[0].wlan[0].mac 	rcvdPkFromHL:sum(packetBytes) 	5652180
attr interpolationmode  none
attr source  packetReceivedFromUpper
attr title  "packets received from higher layer, sum(packetBytes)"
scalar StaticHierarchical.gw[0].wlan[0].mac 	passedUpPk:count 	29944
attr interpolationmode  none
attr source  packetSentToUpper
attr title  "packets passed to higher layer, count"
scalar StaticHierarchical.gw[0].wlan[0].mac 	passedUpPk:sum(packetBytes) 	5680240
attr interpolationmode  none
attr source  packetSentToUpper
attr title  "packets passed to higher layer, sum(packetBytes)"
scalar StaticHierarchical.gw[0].wlan[0].mac 	rcvdPkFromLL:count 	116511
attr interpolationmode  none
attr source  packetReceivedFromLower
attr title  "packets received from lower layer, count"
scalar StaticHierarchical.gw[0].wlan[0].mac 	rcvdPkFromLL:sum(packetBytes) 	12020330
attr interpolationmode  none
attr source  packetReceivedFromLower
attr title  "packets received from lower layer, sum(packetBytes)"
scalar StaticHierarchical.gw[0].wlan[0].mac 	sentDownPk:count 	59799
attr interpolationmode  none
attr source  packetSentToLower
attr title  "packets sent to lower layer, count"
scalar StaticHierarchical.gw[0].wlan[0].mac 	sentDownPk:sum(packetBytes) 	6091306
attr interpolationmode  none
attr source  packetSentToLower
attr title  "packets sent to lower layer, sum(packetBytes)"
scalar StaticHierarchical.gw[0].wlan[0].radio 	lossRate:min 	0
attr interpolationmode  backward-sample-hold
attr title  "packet loss rate, min"
scalar StaticHierarchical.gw[0].wlan[0].radio 	lossRate:max 	0.22
attr interpolationmode  backward-sample-hold
attr title  "packet loss rate, max"
scalar StaticHierarchical.gw[0].wlan[0].radio 	lossRate:timeavg 	0.013303886477038
attr interpolationmode  backward-sample-hold
attr title  "packet loss rate, timeavg"
statistic StaticHierarchical.gw[0].wlan[0].radio 	channelNo:histogram
field count 1
field mean 0
field stddev -nan
field sum 0
field sqrsum 0
field min 0
field max 0
attr interpolationmode  sample-hold
attr title  "channel no, histogram"
bin	-INF	0
bin	-0.5	0
bin	-0.46666666666667	0
bin	-0.43333333333333	0
bin	-0.4	0
bin	-0.36666666666667	0
bin	-0.33333333333333	0
bin	-0.3	0
bin	-0.26666666666667	0
bin	-0.23333333333333	0
bin	-0.2	0
bin	-0.16666666666667	0
bin	-0.13333333333333	0
bin	-0.1	0
bin	-0.066666666666667	0
bin	-0.033333333333333	0
bin	0	1
bin	0.033333333333333	0
bin	0.066666666666667	0
bin	0.1	0
bin	0.13333333333333	0
bin	0.16666666666667	0
bin	0.2	0
bin	0.23333333333333	0
bin	0.26666666666667	0
bin	0.3	0
bin	0.33333333333333	0
bin	0.36666666666667	0
bin	0.4	0
bin	0.43333333333333	0
bin	0.46666666666667	0
bin	0.5	0
scalar StaticHierarchical.gw[0].wlan[0].radio 	bitrate:min 	11000000
attr interpolationmode  sample-hold
attr title  "tx bitrate, min"
attr unit  bps
scalar StaticHierarchical.gw[0].wlan[0].radio 	bitrate:max 	11000000
attr interpolationmode  sample-hold
attr title  "tx bitrate, max"
attr unit  bps
scalar StaticHierarchical.gw[0].wlan[0].radio 	bitrate:timeavg 	11000000
attr interpolationmode  sample-hold
attr title  "tx bitrate, timeavg"
attr unit  bps
scalar StaticHierarchical.gw[0].wlan[0].radio 	radioState:count 	352574
attr interpolationmode  sample-hold
attr title  "radio state (enum), count"
scalar StaticHierarchical.gw[0].wlan[1].mgmt 	dataQueueLen:max 	10
attr interpolationmode  sample-hold
attr title  "data queue length, max"
scalar StaticHierarchical.gw[0].wlan[1].mgmt 	dataQueueLen:timeavg 	0.0015002656011111
attr interpolationmode  sample-hold
attr title  "data queue length, timeavg"
scalar StaticHierarchical.gw[0].wlan[1].mgmt 	dropPkByQueue:count 	35
attr interpolationmode  none
attr source  dropPkByQueue
attr title  "packets dropped by queue, count"
scalar StaticHierarchical.gw[0].wlan[1].mgmt 	dropPkByQueue:sum(packetBytes) 	6650
attr interpolationmode  none
attr source  dropPkByQueue
attr title  "packets dropped by queue, sum(packetBytes)"
scalar StaticHierarchical.gw[0].wlan[1].mac 	"number of received packets" 	29753
scalar StaticHierarchical.gw[0].wlan[1].mac 	"number of collisions" 	458
scalar StaticHierarchical.gw[0].wlan[1].mac 	"number of internal collisions" 	0
scalar StaticHierarchical.gw[0].wlan[1].mac 	"number of retry for AC 0" 	16792
scalar StaticHierarchical.gw[0].wlan[1].mac 	"sent and received bits" 	45268320
scalar StaticHierarchical.gw[0].wlan[1].mac 	"sent packet within AC 0" 	29783
scalar StaticHierarchical.gw[0].wlan[1].mac 	"sent in TXOP " 	0
scalar StaticHierarchical.gw[0].wlan[1].mac 	"sentWithoutRetry AC 0" 	23516
scalar StaticHierarchical.gw[0].wlan[1].mac 	"numGivenUp AC 0" 	56
scalar StaticHierarchical.gw[0].wlan[1].mac 	"numDropped AC 0" 	0
scalar StaticHierarchical.gw[0].wlan[1].mac 	rcvdPkFromHL:count 	29846
attr interpolationmode  none
attr source  packetReceivedFromUpper
attr title  "packets received from higher layer, count"
scalar StaticHierarchical.gw[0].wlan[1].mac 	rcvdPkFromHL:sum(packetBytes) 	5669180
attr interpolationmode  none
attr source  packetReceivedFromUpper
attr title  "packets received from higher layer, sum(packetBytes)"
scalar StaticHierarchical.gw[0].wlan[1].mac 	passedUpPk:count 	29749
attr interpolationmode  none
attr source  packetSentToUpper
attr title  "packets passed to higher layer, count"
scalar StaticHierarchical.gw[0].wlan[1].mac 	passedUpPk:sum(packetBytes) 	5650150
attr interpolationmode  none
attr source  packetSentToUpper
attr title  "packets passed to higher layer, sum(packetBytes)"
scalar StaticHierarchical.gw[0].wlan[1].mac 	rcvdPkFromLL:count 	127252
attr interpolationmode  none
attr source  packetReceivedFromLower
attr title  "packets received from lower layer, count"
scalar StaticHierarchical.gw[0].wlan[1].mac 	rcvdPkFromLL:sum(packetBytes) 	13696896
attr interpolationmode  none
attr source  packetReceivedFromLower
attr title  "packets received from lower layer, sum(packetBytes)"
scalar StaticHierarchical.gw[0].wlan[1].mac 	sentDownPk:count 	76391
attr interpolationmode  none
attr source  packetSentToLower
attr title  "packets sent to lower layer, count"
scalar StaticHierarchical.gw[0].wlan[1].mac 	sentDownPk:sum(packetBytes) 	9275962
attr interpolationmode  none
attr source  packetSentToLower
attr title  "packets sent to lower layer, sum(packetBytes)"
scalar StaticHierarchical.gw[0].wlan[1].radio 	lossRate:min 	0
attr interpolationmode  backward-sample-hold
attr title  "packet loss rate, min"
scalar StaticHierarchical.gw[0].wlan[1].radio 	lossRate:max 	0.08
attr interpolationmode  backward-sample-hold
attr title  "packet loss rate, max"
scalar StaticHierarchical.gw[0].wlan[1].radio 	lossRate:timeavg 	0.0035883697300201
attr interpolationmode  backward-sample-hold
attr title  "packet loss rate, timeavg"
statistic StaticHierarchical.gw[0].wlan[1].radio 	channelNo:histogram
field count 1
field mean 5
field stddev -nan
field sum 5
field sqrsum 25
field min 5
field max 5
attr interpolationmode  sample-hold
attr title  "channel no, histogram"
bin	-INF	0
bin	4	0
bin	5	1
bin	6	0
scalar StaticHierarchical.gw[0].wlan[1].radio 	bitrate:min 	11000000
attr interpolationmode  sample-hold
attr title  "tx bitrate, min"
attr unit  bps
scalar StaticHierarchical.gw[0].wlan[1].radio 	bitrate:max 	11000000
attr interpolationmode  sample-hold
attr title  "tx bitrate, max"
attr unit  bps
scalar StaticHierarchical.gw[0].wlan[1].radio 	bitrate:timeavg 	11000000
attr interpolationmode  sample-hold
attr title  "tx bitrate, timeavg"
attr unit  bps
scalar StaticHierarchical.gw[0].wlan[1].radio 	radioState:count 	407640
attr interpolationmode  sample-hold
attr title  "radio state (enum), count"
scalar StaticHierarchical.gw[0].udp 	droppedPkBadChecksum:count 	0
attr interpolationmode  none
attr title  "packets dropped (checksum error), count"
scalar StaticHierarchical.gw[0].udp 	droppedPkWrongPort:count 	0
attr interpolationmode  none
attr title  "packets dropped (wrong port), count"
scalar StaticHierarchical.gw[0].udp 	passedUpPk:count 	0
attr interpolationmode  none
attr title  "packets passed up, count"
scalar StaticHierarchical.gw[0].udp 	rcvdPk:count 	0
attr interpolationmode  none
attr source  rcvdPk
attr title  "packets received, count"
scalar StaticHierarchical.gw[0].udp 	rcvdPk:sum(packetBytes) 	0
attr interpolationmode  none
attr source  rcvdPk
attr title  "packets received, sum(packetBytes)"
scalar StaticHierarchical.gw[0].udp 	sentPk:count 	0
attr interpolationmode  none
attr source  sentPk
attr title  "packets sent, count"
scalar StaticHierarchical.gw[0].udp 	sentPk:sum(packetBytes) 	0
attr interpolationmode  none
attr source  sentPk
attr title  "packets sent, sum(packetBytes)"
scalar StaticHierarchical.gw[0].pingApp[0] 	numOutOfOrderArrivals:last 	-nan
attr interpolationmode  none
attr title  "ping out-of-order arrivals, last"
scalar StaticHierarchical.gw[0].pingApp[0] 	pingRxSeq:count 	0
attr interpolationmode  none
attr title  "ping rx seq, count"
scalar StaticHierarchical.gw[0].pingApp[0] 	pingTxSeq:count 	0
attr interpolationmode  none
attr title  "ping tx seq, count"
scalar StaticHierarchical.gw[0].pingApp[0] 	numLost:last 	-nan
attr interpolationmode  none
attr title  "pings lost, last"
statistic StaticHierarchical.gw[0].pingApp[0] 	rtt:histogram
field count 0
field mean -nan
field stddev -nan
field sum 0
field sqrsum 0
field min -nan
field max -nan
attr interpolationmode  none
attr title  "ping round-trip time, histogram"
attr unit  s
bin	-INF	0
bin	-0.5	0
bin	-0.46666666666667	0
bin	-0.43333333333333	0
bin	-0.4	0
bin	-0.36666666666667	0
bin	-0.33333333333333	0
bin	-0.3	0
bin	-0.26666666666667	0
bin	-0.23333333333333	0
bin	-0.2	0
bin	-0.16666666666667	0
bin	-0.13333333333333	0
bin	-0.1	0
bin	-0.066666666666667	0
bin	-0.033333333333333	0
bin	0	0
bin	0.033333333333333	0
bin	0.066666666666667	0
bin	0.1	0
bin	0.13333333333333	0
bin	0.16666666666667	0
bin	0.2	0
bin	0.23333333333333	0
bin	0.26666666666667	0
bin	0.3	0
bin	0.33333333333333	0
bin	0.36666666666667	0
bin	0.4	0
bin	0.43333333333333	0
bin	0.46666666666667	0
bin	0.5	0
scalar StaticHierarchical.gw[0].pingTestApp[0] 	numOutOfOrderArrivals:last 	-nan
attr interpolationmode  none
attr title  "ping out-of-order arrivals, last"
scalar StaticHierarchical.gw[0].pingTestApp[0] 	pingRxSeq:count 	0
attr interpolationmode  none
attr title  "ping rx seq, count"
scalar StaticHierarchical.gw[0].pingTestApp[0] 	pingTxSeq:count 	0
attr interpolationmode  none
attr title  "ping tx seq, count"
scalar StaticHierarchical.gw[0].pingTestApp[0] 	numLost:last 	-nan
attr interpolationmode  none
attr title  "pings lost, last"
statistic StaticHierarchical.gw[0].pingTestApp[0] 	rtt:histogram
field count 0
field mean -nan
field stddev -nan
field sum 0
field sqrsum 0
field min -nan
field max -nan
attr interpolationmode  none
attr title  "ping round-trip time, histogram"
attr unit  s
bin	-INF	0
bin	-0.5	0
bin	-0.46666666666667	0
bin	-0.43333333333333	0
bin	-0.4	0
bin	-0.36666666666667	0
bin	-0.33333333333333	0
bin	-0.3	0
bin	-0.26666666666667	0
bin	-0.23333333333333	0
bin	-0.2	0
bin	-0.16666666666667	0
bin	-0.13333333333333	0
bin	-0.1	0
bin	-0.066666666666667	0
bin	-0.033333333333333	0
bin	0	0
bin	0.033333333333333	0
bin	0.066666666666667	0
bin	0.1	0
bin	0.13333333333333	0
bin	0.16666666666667	0
bin	0.2	0
bin	0.23333333333333	0
bin	0.26666666666667	0
bin	0.3	0
bin	0.33333333333333	0
bin	0.36666666666667	0
bin	0.4	0
bin	0.43333333333333	0
bin	0.46666666666667	0
bin	0.5	0
scalar StaticHierarchical.gw[1].networkLayer.arp 	failedARPResolution:count 	0
attr title  "ARP failed resolutions, count"
scalar StaticHierarchical.gw[1].networkLayer.arp 	completedARPResolution:count 	28
attr title  "ARP completed resolutions, count"
scalar StaticHierarchical.gw[1].networkLayer.arp 	initiatedARPResolution:count 	12
attr title  "ARP initiated resolutions, count"
scalar StaticHierarchical.gw[1].networkLayer.arp 	sentReply:count 	12
attr title  "ARP replies sent, count"
scalar StaticHierarchical.gw[1].networkLayer.arp 	sentReq:count 	12
attr title  "ARP request sent, count"
scalar StaticHierarchical.gw[1].lo0.lo 	droppedPkBitError:count 	0
attr interpolationmode  none
attr source  dropPkBitError
attr title  "packets dropped/bit error, count"
scalar StaticHierarchical.gw[1].lo0.lo 	droppedPkBitError:sum(packetBytes) 	0
attr interpolationmode  none
attr source  dropPkBitError
attr title  "packets dropped/bit error, sum(packetBytes)"
scalar StaticHierarchical.gw[1].lo0.lo 	rcvdPkFromHL:count 	0
attr interpolationmode  none
attr source  packetReceivedFromUpper
attr title  "packets received from higher layer, count"
scalar StaticHierarchical.gw[1].lo0.lo 	rcvdPkFromHL:sum(packetBytes) 	0
attr interpolationmode  none
attr source  packetReceivedFromUpper
attr title  "packets received from higher layer, sum(packetBytes)"
scalar StaticHierarchical.gw[1].lo0.lo 	passedUpPk:count 	0
attr interpolationmode  none
attr source  packetSentToUpper
attr title  "packets passed to higher layer, count"
scalar StaticHierarchical.gw[1].lo0.lo 	passedUpPk:sum(packetBytes) 	0
attr interpolationmode  none
attr source  packetSentToUpper
attr title  "packets passed to higher layer, sum(packetBytes)"
scalar StaticHierarchical.gw[1].wlan[0].mgmt 	dataQueueLen:max 	0
attr interpolationmode  sample-hold
attr title  "data queue length, max"
scalar StaticHierarchical.gw[1].wlan[0].mgmt 	dataQueueLen:timeavg 	0
attr interpolationmode  sample-hold
attr title  "data queue length, timeavg"
scalar StaticHierarchical.gw[1].wlan[0].mgmt 	dropPkByQueue:count 	0
attr interpolationmode  none
attr source  dropPkByQueue
attr title  "packets dropped by queue, count"
scalar StaticHierarchical.gw[1].wlan[0].mgmt 	dropPkByQueue:sum(packetBytes) 	0
attr interpolationmode  none
attr source  dropPkByQueue
attr title  "packets dropped by queue, sum(packetBytes)"
scalar StaticHierarchical.gw[1].wlan[0].mac 	"number of received packets" 	0
scalar StaticHierarchical.gw[1].wlan[0].mac 	"number of collisions" 	0
scalar StaticHierarchical.gw[1].wlan[0].mac 	"number of internal collisions" 	0
scalar StaticHierarchical.gw[1].wlan[0].mac 	"number of retry for AC 0" 	0
scalar StaticHierarchical.gw[1].wlan[0].mac 	"sent and received bits" 	0
scalar StaticHierarchical.gw[1].wlan[0].mac 	"sent packet within AC 0" 	0
scalar StaticHierarchical.gw[1].wlan[0].mac 	"sent in TXOP " 	0
scalar StaticHierarchical.gw[1].wlan[0].mac 	"sentWithoutRetry AC 0" 	0
scalar StaticHierarchical.gw[1].wlan[0].mac 	"numGivenUp AC 0" 	0
scalar StaticHierarchical.gw[1].wlan[0].mac 	"numDropped AC 0" 	0
scalar StaticHierarchical.gw[1].wlan[0].mac 	rcvdPkFromHL:count 	0
attr interpolationmode  none
attr source  packetReceivedFromUpper
attr title  "packets received from higher layer, count"
scalar StaticHierarchical.gw[1].wlan[0].mac 	rcvdPkFromHL:sum(packetBytes) 	0
attr interpolationmode  none
attr source  packetReceivedFromUpper
attr title  "packets received from higher layer, sum(packetBytes)"
scalar StaticHierarchical.gw[1].wlan[0].mac 	passedUpPk:count 	0
attr interpolationmode  none
attr source  packetSentToUpper
attr title  "packets passed to higher layer, count"
scalar StaticHierarchical.gw[1].wlan[0].mac 	passedUpPk:sum(packetBytes) 	0
attr interpolationmode  none
attr source  packetSentToUpper
attr title  "packets passed to higher layer, sum(packetBytes)"
scalar StaticHierarchical.gw[1].wlan[0].mac 	rcvdPkFromLL:count 	0
attr interpolationmode  none
attr source  packetReceivedFromLower
attr title  "packets received from lower layer, count"
scalar StaticHierarchical.gw[1].wlan[0].mac 	rcvdPkFromLL:sum(packetBytes) 	0
attr interpolationmode  none
attr source  packetReceivedFromLower
attr title  "packets received from lower layer, sum(packetBytes)"
scalar StaticHierarchical.gw[1].wlan[0].mac 	sentDownPk:count 	0
attr interpolationmode  none
attr source  packetSentToLower
attr title  "packets sent to lower layer, count"
scalar StaticHierarchical.gw[1].wlan[0].mac 	sentDownPk:sum(packetBytes) 	0
attr interpolationmode  none
attr source  packetSentToLower
attr title  "packets sent to lower layer, sum(packetBytes)"
scalar StaticHierarchical.gw[1].wlan[0].radio 	lossRate:min 	-nan
attr interpolationmode  backward-sample-hold
attr title  "packet loss rate, min"
scalar StaticHierarchical.gw[1].wlan[0].radio 	lossRate:max 	-nan
attr interpolationmode  backward-sample-hold
attr title  "packet loss rate, max"
scalar StaticHierarchical.gw[1].wlan[0].radio 	lossRate:timeavg 	-nan
attr interpolationmode  backward-sample-hold
attr title  "packet loss rate, timeavg"
statistic StaticHierarchical.gw[1].wlan[0].radio 	channelNo:histogram
field count 1
field mean 1
field stddev -nan
field sum 1
field sqrsum 1
field min 1
field max 1
attr interpolationmode  sample-hold
attr title  "channel no, histogram"
bin	-INF	0
bin	0	0
bin	1	1
bin	2	0
scalar StaticHierarchical.gw[1].wlan[0].radio 	bitrate:min 	11000000
attr interpolationmode  sample-hold
attr title  "tx bitrate, min"
attr unit  bps
scalar StaticHierarchical.gw[1].wlan[0].radio 	bitrate:max 	11000000
attr interpolationmode  sample-hold
attr title  "tx bitrate, max"
attr unit  bps
scalar StaticHierarchical.gw[1].wlan[0].radio 	bitrate:timeavg 	11000000
attr interpolationmode  sample-hold
attr title  "tx bitrate, timeavg"
attr unit  bps
scalar StaticHierarchical.gw[1].wlan[0].radio 	radioState:count 	1
attr interpolationmode  sample-hold
attr title  "radio state (enum), count"
scalar StaticHierarchical.gw[1].wlan[1].mgmt 	dataQueueLen:max 	6
attr interpolationmode  sample-hold
attr title  "data queue length, max"
scalar StaticHierarchical.gw[1].wlan[1].mgmt 	dataQueueLen:timeavg 	0.0013933689788889
attr interpolationmode  sample-hold
attr title  "data queue length, timeavg"
scalar StaticHierarchical.gw[1].wlan[1].mgmt 	dropPkByQueue:count 	0
attr interpolationmode  none
attr source  dropPkByQueue
attr title  "packets dropped by queue, count"
scalar StaticHierarchical.gw[1].wlan[1].mgmt 	dropPkByQueue:sum(packetBytes) 	0
attr interpolationmode  none
attr source  dropPkByQueue
attr title  "packets dropped by queue, sum(packetBytes)"
scalar StaticHierarchical.gw[1].wlan[1].mac 	"number of received packets" 	59579
scalar StaticHierarchical.gw[1].wlan[1].mac 	"number of collisions" 	18125
scalar StaticHierarchical.gw[1].wlan[1].mac 	"number of internal collisions" 	0
scalar StaticHierarchical.gw[1].wlan[1].mac 	"number of retry for AC 0" 	8236
scalar StaticHierarchical.gw[1].wlan[1].mac 	"sent and received bits" 	90445840
scalar StaticHierarchical.gw[1].wlan[1].mac 	"sent packet within AC 0" 	59507
scalar StaticHierarchical.gw[1].wlan[1].mac 	"sent in TXOP " 	0
scalar StaticHierarchical.gw[1].wlan[1].mac 	"sentWithoutRetry AC 0" 	56159
scalar StaticHierarchical.gw[1].wlan[1].mac 	"numGivenUp AC 0" 	13
scalar StaticHierarchical.gw[1].wlan[1].mac 	"numDropped AC 0" 	0
scalar StaticHierarchical.gw[1].wlan[1].mac 	rcvdPkFromHL:count 	59532
attr interpolationmode  none
attr source  packetReceivedFromUpper
attr title  "packets received from higher layer, count"
scalar StaticHierarchical.gw[1].wlan[1].mac 	rcvdPkFromHL:sum(packetBytes) 	11308200
attr interpolationmode  none
attr source  packetReceivedFromUpper
attr title  "packets received from higher layer, sum(packetBytes)"
scalar StaticHierarchical.gw[1].wlan[1].mac 	passedUpPk:count 	59537
attr interpolationmode  none
attr source  packetSentToUpper
attr title  "packets passed to higher layer, count"
scalar StaticHierarchical.gw[1].wlan[1].mac 	passedUpPk:sum(packetBytes) 	11308550
attr interpolationmode  none
attr source  packetSentToUpper
attr title  "packets passed to higher layer, sum(packetBytes)"
scalar StaticHierarchical.gw[1].wlan[1].mac 	rcvdPkFromLL:count 	200692
attr interpolationmode  none
attr source  packetReceivedFromLower
attr title  "packets received from lower layer, count"
scalar StaticHierarchical.gw[1].wlan[1].mac 	rcvdPkFromLL:sum(packetBytes) 	22045648
attr interpolationmode  none
attr source  packetReceivedFromLower
attr title  "packets received from lower layer, sum(packetBytes)"
scalar StaticHierarchical.gw[1].wlan[1].mac 	sentDownPk:count 	127347
attr interpolationmode  none
attr source  packetSentToLower
attr title  "packets sent to lower layer, count"
scalar StaticHierarchical.gw[1].wlan[1].mac 	sentDownPk:sum(packetBytes) 	13707026
attr interpolationmode  none
attr source  packetSentToLower
attr title  "packets sent to lower layer, sum(packetBytes)"
scalar StaticHierarchical.gw[1].wlan[1].radio 	lossRate:min 	0
attr interpolationmode  backward-sample-hold
attr title  "packet loss rate, min"
scalar StaticHierarchical.gw[1].wlan[1].radio 	lossRate:max 	0.42
attr interpolationmode  backward-sample-hold
attr title  "packet loss rate, max"
scalar StaticHierarchical.gw[1].wlan[1].radio 	lossRate:timeavg 	0.092941739279793
attr interpolationmode  backward-sample-hold
attr title  "packet loss rate, timeavg"
statistic StaticHierarchical.gw[1].wlan[1].radio 	channelNo:histogram
field count 1
field mean 5
field stddev -nan
field sum 5
field sqrsum 25
field min 5
field max 5
attr interpolationmode  sample-hold
attr title  "channel no, histogram"
bin	-INF	0
bin	4	0
bin	5	1
bin	6	0
scalar StaticHierarchical.gw[1].wlan[1].radio 	bitrate:min 	11000000
attr interpolationmode  sample-hold
attr title  "tx bitrate, min"
attr unit  bps
scalar StaticHierarchical.gw[1].wlan[1].radio 	bitrate:max 	11000000
attr interpolationmode  sample-hold
attr title  "tx bitrate, max"
attr unit  bps
scalar StaticHierarchical.gw[1].wlan[1].radio 	bitrate:timeavg 	11000000
attr interpolationmode  sample-hold
attr title  "tx bitrate, timeavg"
attr unit  bps
scalar StaticHierarchical.gw[1].wlan[1].radio 	radioState:count 	655419
attr interpolationmode  sample-hold
attr title  "radio state (enum), count"
scalar StaticHierarchical.gw[1].udp 	droppedPkBadChecksum:count 	0
attr interpolationmode  none
attr title  "packets dropped (checksum error), count"
scalar StaticHierarchical.gw[1].udp 	droppedPkWrongPort:count 	0
attr interpolationmode  none
attr title  "packets dropped (wrong port), count"
scalar StaticHierarchical.gw[1].udp 	passedUpPk:count 	0
attr interpolationmode  none
attr title  "packets passed up, count"
scalar StaticHierarchical.gw[1].udp 	rcvdPk:count 	0
attr interpolationmode  none
attr source  rcvdPk
attr title  "packets received, count"
scalar StaticHierarchical.gw[1].udp 	rcvdPk:sum(packetBytes) 	0
attr interpolationmode  none
attr source  rcvdPk
attr title  "packets received, sum(packetBytes)"
scalar StaticHierarchical.gw[1].udp 	sentPk:count 	0
attr interpolationmode  none
attr source  sentPk
attr title  "packets sent, count"
scalar StaticHierarchical.gw[1].udp 	sentPk:sum(packetBytes) 	0
attr interpolationmode  none
attr source  sentPk
attr title  "packets sent, sum(packetBytes)"
scalar StaticHierarchical.gw[1].pingApp[0] 	numOutOfOrderArrivals:last 	-nan
attr interpolationmode  none
attr title  "ping out-of-order arrivals, last"
scalar StaticHierarchical.gw[1].pingApp[0] 	pingRxSeq:count 	0
attr interpolationmode  none
attr title  "ping rx seq, count"
scalar StaticHierarchical.gw[1].pingApp[0] 	pingTxSeq:count 	0
attr interpolationmode  none
attr title  "ping tx seq, count"
scalar StaticHierarchical.gw[1].pingApp[0] 	numLost:last 	-nan
attr interpolationmode  none
attr title  "pings lost, last"
statistic StaticHierarchical.gw[1].pingApp[0] 	rtt:histogram
field count 0
field mean -nan
field stddev -nan
field sum 0
field sqrsum 0
field min -nan
field max -nan
attr interpolationmode  none
attr title  "ping round-trip time, histogram"
attr unit  s
bin	-INF	0
bin	-0.5	0
bin	-0.46666666666667	0
bin	-0.43333333333333	0
bin	-0.4	0
bin	-0.36666666666667	0
bin	-0.33333333333333	0
bin	-0.3	0
bin	-0.26666666666667	0
bin	-0.23333333333333	0
bin	-0.2	0
bin	-0.16666666666667	0
bin	-0.13333333333333	0
bin	-0.1	0
bin	-0.066666666666667	0
bin	-0.033333333333333	0
bin	0	0
bin	0.033333333333333	0
bin	0.066666666666667	0
bin	0.1	0
bin	0.13333333333333	0
bin	0.16666666666667	0
bin	0.2	0
bin	0.23333333333333	0
bin	0.26666666666667	0
bin	0.3	0
bin	0.33333333333333	0
bin	0.36666666666667	0
bin	0.4	0
bin	0.43333333333333	0
bin	0.46666666666667	0
bin	0.5	0
scalar StaticHierarchical.gw[1].pingTestApp[0] 	numOutOfOrderArrivals:last 	-nan
attr interpolationmode  none
attr title  "ping out-of-order arrivals, last"
scalar StaticHierarchical.gw[1].pingTestApp[0] 	pingRxSeq:count 	0
attr interpolationmode  none
attr title  "ping rx seq, count"
scalar StaticHierarchical.gw[1].pingTestApp[0] 	pingTxSeq:count 	0
attr interpolationmode  none
attr title  "ping tx seq, count"
scalar StaticHierarchical.gw[1].pingTestApp[0] 	numLost:last 	-nan
attr interpolationmode  none
attr title  "pings lost, last"
statistic StaticHierarchical.gw[1].pingTestApp[0] 	rtt:histogram
field count 0
field mean -nan
field stddev -nan
field sum 0
field sqrsum 0
field min -nan
field max -nan
attr interpolationmode  none
attr title  "ping round-trip time, histogram"
attr unit  s
bin	-INF	0
bin	-0.5	0
bin	-0.46666666666667	0
bin	-0.43333333333333	0
bin	-0.4	0
bin	-0.36666666666667	0
bin	-0.33333333333333	0
bin	-0.3	0
bin	-0.26666666666667	0
bin	-0.23333333333333	0
bin	-0.2	0
bin	-0.16666666666667	0
bin	-0.13333333333333	0
bin	-0.1	0
bin	-0.066666666666667	0
bin	-0.033333333333333	0
bin	0	0
bin	0.033333333333333	0
bin	0.066666666666667	0
bin	0.1	0
bin	0.13333333333333	0
bin	0.16666666666667	0
bin	0.2	0
bin	0.23333333333333	0
bin	0.26666666666667	0
bin	0.3	0
bin	0.33333333333333	0
bin	0.36666666666667	0
bin	0.4	0
bin	0.43333333333333	0
bin	0.46666666666667	0
bin	0.5	0
scalar StaticHierarchical.gw[2].networkLayer.arp 	failedARPResolution:count 	0
attr title  "ARP failed resolutions, count"
scalar StaticHierarchical.gw[2].networkLayer.arp 	completedARPResolution:count 	96
attr title  "ARP completed resolutions, count"
scalar StaticHierarchical.gw[2].networkLayer.arp 	initiatedARPResolution:count 	52
attr title  "ARP initiated resolutions, count"
scalar StaticHierarchical.gw[2].networkLayer.arp 	sentReply:count 	15
attr title  "ARP replies sent, count"
scalar StaticHierarchical.gw[2].networkLayer.arp 	sentReq:count 	53
attr title  "ARP request sent, count"
scalar StaticHierarchical.gw[2].lo0.lo 	droppedPkBitError:count 	0
attr interpolationmode  none
attr source  dropPkBitError
attr title  "packets dropped/bit error, count"
scalar StaticHierarchical.gw[2].lo0.lo 	droppedPkBitError:sum(packetBytes) 	0
attr interpolationmode  none
attr source  dropPkBitError
attr title  "packets dropped/bit error, sum(packetBytes)"
scalar StaticHierarchical.gw[2].lo0.lo 	rcvdPkFromHL:count 	0
attr interpolationmode  none
attr source  packetReceivedFromUpper
attr title  "packets received from higher layer, count"
scalar StaticHierarchical.gw[2].lo0.lo 	rcvdPkFromHL:sum(packetBytes) 	0
attr interpolationmode  none
attr source  packetReceivedFromUpper
attr title  "packets received from higher layer, sum(packetBytes)"
scalar StaticHierarchical.gw[2].lo0.lo 	passedUpPk:count 	0
attr interpolationmode  none
attr source  packetSentToUpper
attr title  "packets passed to higher layer, count"
scalar StaticHierarchical.gw[2].lo0.lo 	passedUpPk:sum(packetBytes) 	0
attr interpolationmode  none
attr source  packetSentToUpper
attr title  "packets passed to higher layer, sum(packetBytes)"
scalar StaticHierarchical.gw[2].wlan[0].mgmt 	dataQueueLen:max 	1
attr interpolationmode  sample-hold
attr title  "data queue length, max"
scalar StaticHierarchical.gw[2].wlan[0].mgmt 	dataQueueLen:timeavg 	2.4912596666667e-05
attr interpolationmode  sample-hold
attr title  "data queue length, timeavg"
scalar StaticHierarchical.gw[2].wlan[0].mgmt 	dropPkByQueue:count 	0
attr interpolationmode  none
attr source  dropPkByQueue
attr title  "packets dropped by queue, count"
scalar StaticHierarchical.gw[2].wlan[0].mgmt 	dropPkByQueue:sum(packetBytes) 	0
attr interpolationmode  none
attr source  dropPkByQueue
attr title  "packets dropped by queue, sum(packetBytes)"
scalar StaticHierarchical.gw[2].wlan[0].mac 	"number of received packets" 	39083
scalar StaticHierarchical.gw[2].wlan[0].mac 	"number of collisions" 	3646
scalar StaticHierarchical.gw[2].wlan[0].mac 	"number of internal collisions" 	0
scalar StaticHierarchical.gw[2].wlan[0].mac 	"number of retry for AC 0" 	201
scalar StaticHierarchical.gw[2].wlan[0].mac 	"sent and received bits" 	59206800
scalar StaticHierarchical.gw[2].wlan[0].mac 	"sent packet within AC 0" 	38939
scalar StaticHierarchical.gw[2].wlan[0].mac 	"sent in TXOP " 	0
scalar StaticHierarchical.gw[2].wlan[0].mac 	"sentWithoutRetry AC 0" 	38785
scalar StaticHierarchical.gw[2].wlan[0].mac 	"numGivenUp AC 0" 	0
scalar StaticHierarchical.gw[2].wlan[0].mac 	"numDropped AC 0" 	0
scalar StaticHierarchical.gw[2].wlan[0].mac 	rcvdPkFromHL:count 	38979
attr interpolationmode  none
attr source  packetReceivedFromUpper
attr title  "packets received from higher layer, count"
scalar StaticHierarchical.gw[2].wlan[0].mac 	rcvdPkFromHL:sum(packetBytes) 	7400850
attr interpolationmode  none
attr source  packetReceivedFromUpper
attr title  "packets received from higher layer, sum(packetBytes)"
scalar StaticHierarchical.gw[2].wlan[0].mac 	passedUpPk:count 	39085
attr interpolationmode  none
attr source  packetSentToUpper
attr title  "packets passed to higher layer, count"
scalar StaticHierarchical.gw[2].wlan[0].mac 	passedUpPk:sum(packetBytes) 	7418230
attr interpolationmode  none
attr source  packetSentToUpper
attr title  "packets passed to higher layer, sum(packetBytes)"
scalar StaticHierarchical.gw[2].wlan[0].mac 	rcvdPkFromLL:count 	126296
attr interpolationmode  none
attr source  packetReceivedFromLower
attr title  "packets received from lower layer, count"
scalar StaticHierarchical.gw[2].wlan[0].mac 	rcvdPkFromLL:sum(packetBytes) 	13090552
attr interpolationmode  none
attr source  packetReceivedFromLower
attr title  "packets received from lower layer, sum(packetBytes)"
scalar StaticHierarchical.gw[2].wlan[0].mac 	sentDownPk:count 	78263
attr interpolationmode  none
attr source  packetSentToLower
attr title  "packets sent to lower layer, count"
scalar StaticHierarchical.gw[2].wlan[0].mac 	sentDownPk:sum(packetBytes) 	7986202
attr interpolationmode  none
attr source  packetSentToLower
attr title  "packets sent to lower layer, sum(packetBytes)"
scalar StaticHierarchical.gw[2].wlan[0].radio 	lossRate:min 	0
attr interpolationmode  backward-sample-hold
attr title  "packet loss rate, min"
scalar StaticHierarchical.gw[2].wlan[0].radio 	lossRate:max 	0.28
attr interpolationmode  backward-sample-hold
attr title  "packet loss rate, max"
scalar StaticHierarchical.gw[2].wlan[0].radio 	lossRate:timeavg 	0.028924096630141
attr interpolationmode  backward-sample-hold
attr title  "packet loss rate, timeavg"
statistic StaticHierarchical.gw[2].wlan[0].radio 	channelNo:histogram
field count 1
field mean 2
field stddev -nan
field sum 2
field sqrsum 4
field min 2
field max 2
attr interpolationmode  sample-hold
attr title  "channel no, histogram"
bin	-INF	0
bin	1	0
bin	2	1
bin	3	0
scalar StaticHierarchical.gw[2].wlan[0].radio 	bitrate:min 	11000000
attr interpolationmode  sample-hold
attr title  "tx bitrate, min"
attr unit  bps
scalar StaticHierarchical.gw[2].wlan[0].radio 	bitrate:max 	11000000
attr interpolationmode  sample-hold
attr title  "tx bitrate, max"
attr unit  bps
scalar StaticHierarchical.gw[2].wlan[0].radio 	bitrate:timeavg 	11000000
attr interpolationmode  sample-hold
attr title  "tx bitrate, timeavg"
attr unit  bps
scalar StaticHierarchical.gw[2].wlan[0].radio 	radioState:count 	408098
attr interpolationmode  sample-hold
attr title  "radio state (enum), count"
scalar StaticHierarchical.gw[2].wlan[1].mgmt 	dataQueueLen:max 	10
attr interpolationmode  sample-hold
attr title  "data queue length, max"
scalar StaticHierarchical.gw[2].wlan[1].mgmt 	dataQueueLen:timeavg 	0.0016542355666667
attr interpolationmode  sample-hold
attr title  "data queue length, timeavg"
scalar StaticHierarchical.gw[2].wlan[1].mgmt 	dropPkByQueue:count 	37
attr interpolationmode  none
attr source  dropPkByQueue
attr title  "packets dropped by queue, count"
scalar StaticHierarchical.gw[2].wlan[1].mgmt 	dropPkByQueue:sum(packetBytes) 	7030
attr interpolationmode  none
attr source  dropPkByQueue
attr title  "packets dropped by queue, sum(packetBytes)"
scalar StaticHierarchical.gw[2].wlan[1].mac 	"number of received packets" 	61728
scalar StaticHierarchical.gw[2].wlan[1].mac 	"number of collisions" 	21553
scalar StaticHierarchical.gw[2].wlan[1].mac 	"number of internal collisions" 	0
scalar StaticHierarchical.gw[2].wlan[1].mac 	"number of retry for AC 0" 	8054
scalar StaticHierarchical.gw[2].wlan[1].mac 	"sent and received bits" 	93884640
scalar StaticHierarchical.gw[2].wlan[1].mac 	"sent packet within AC 0" 	61769
scalar StaticHierarchical.gw[2].wlan[1].mac 	"sent in TXOP " 	0
scalar StaticHierarchical.gw[2].wlan[1].mac 	"sentWithoutRetry AC 0" 	57679
scalar StaticHierarchical.gw[2].wlan[1].mac 	"numGivenUp AC 0" 	2
scalar StaticHierarchical.gw[2].wlan[1].mac 	"numDropped AC 0" 	0
scalar StaticHierarchical.gw[2].wlan[1].mac 	rcvdPkFromHL:count 	61784
attr interpolationmode  none
attr source  packetReceivedFromUpper
attr title  "packets received from higher layer, count"
scalar StaticHierarchical.gw[2].wlan[1].mac 	rcvdPkFromHL:sum(packetBytes) 	11735960
attr interpolationmode  none
attr source  packetReceivedFromUpper
attr title  "packets received from higher layer, sum(packetBytes)"
scalar StaticHierarchical.gw[2].wlan[1].mac 	passedUpPk:count 	61749
attr interpolationmode  none
attr source  packetSentToUpper
attr title  "packets passed to higher layer, count"
scalar StaticHierarchical.gw[2].wlan[1].mac 	passedUpPk:sum(packetBytes) 	11727990
attr interpolationmode  none
attr source  packetSentToUpper
attr title  "packets passed to higher layer, sum(packetBytes)"
scalar StaticHierarchical.gw[2].wlan[1].mac 	rcvdPkFromLL:count 	259523
attr interpolationmode  none
attr source  packetReceivedFromLower
attr title  "packets received from lower layer, count"
scalar StaticHierarchical.gw[2].wlan[1].mac 	rcvdPkFromLL:sum(packetBytes) 	27574530
attr interpolationmode  none
attr source  packetReceivedFromLower
attr title  "packets received from lower layer, sum(packetBytes)"
scalar StaticHierarchical.gw[2].wlan[1].mac 	sentDownPk:count 	131566
attr interpolationmode  none
attr source  packetSentToLower
attr title  "packets sent to lower layer, count"
scalar StaticHierarchical.gw[2].wlan[1].mac 	sentDownPk:sum(packetBytes) 	14128852
attr interpolationmode  none
attr source  packetSentToLower
attr title  "packets sent to lower layer, sum(packetBytes)"
scalar StaticHierarchical.gw[2].wlan[1].radio 	lossRate:min 	0
attr interpolationmode  backward-sample-hold
attr title  "packet loss rate, min"
scalar StaticHierarchical.gw[2].wlan[1].radio 	lossRate:max 	0.4
attr interpolationmode  backward-sample-hold
attr title  "packet loss rate, max"
scalar StaticHierarchical.gw[2].wlan[1].radio 	lossRate:timeavg 	0.086846736502451
attr interpolationmode  backward-sample-hold
attr title  "packet loss rate, timeavg"
statistic StaticHierarchical.gw[2].wlan[1].radio 	channelNo:histogram
field count 1
field mean 5
field stddev -nan
field sum 5
field sqrsum 25
field min 5
field max 5
attr interpolationmode  sample-hold
attr title  "channel no, histogram"
bin	-INF	0
bin	4	0
bin	5	1
bin	6	0
scalar StaticHierarchical.gw[2].wlan[1].radio 	bitrate:min 	11000000
attr interpolationmode  sample-hold
attr title  "tx bitrate, min"
attr unit  bps
scalar StaticHierarchical.gw[2].wlan[1].radio 	bitrate:max 	11000000
attr interpolationmode  sample-hold
attr title  "tx bitrate, max"
attr unit  bps
scalar StaticHierarchical.gw[2].wlan[1].radio 	bitrate:timeavg 	11000000
attr interpolationmode  sample-hold
attr title  "tx bitrate, timeavg"
attr unit  bps
scalar StaticHierarchical.gw[2].wlan[1].radio 	radioState:count 	798096
attr interpolationmode  sample-hold
attr title  "radio state (enum), count"
scalar StaticHierarchical.gw[2].udp 	droppedPkBadChecksum:count 	0
attr interpolationmode  none
attr title  "packets dropped (checksum error), count"
scalar StaticHierarchical.gw[2].udp 	droppedPkWrongPort:count 	0
attr interpolationmode  none
attr title  "packets dropped (wrong port), count"
scalar StaticHierarchical.gw[2].udp 	passedUpPk:count 	0
attr interpolationmode  none
attr title  "packets passed up, count"
scalar StaticHierarchical.gw[2].udp 	rcvdPk:count 	0
attr interpolationmode  none
attr source  rcvdPk
attr title  "packets received, count"
scalar StaticHierarchical.gw[2].udp 	rcvdPk:sum(packetBytes) 	0
attr interpolationmode  none
attr source  rcvdPk
attr title  "packets received, sum(packetBytes)"
scalar StaticHierarchical.gw[2].udp 	sentPk:count 	0
attr interpolationmode  none
attr source  sentPk
attr title  "packets sent, count"
scalar StaticHierarchical.gw[2].udp 	sentPk:sum(packetBytes) 	0
attr interpolationmode  none
attr source  sentPk
attr title  "packets sent, sum(packetBytes)"
scalar StaticHierarchical.gw[2].pingApp[0] 	numOutOfOrderArrivals:last 	-nan
attr interpolationmode  none
attr title  "ping out-of-order arrivals, last"
scalar StaticHierarchical.gw[2].pingApp[0] 	pingRxSeq:count 	0
attr interpolationmode  none
attr title  "ping rx seq, count"
scalar StaticHierarchical.gw[2].pingApp[0] 	pingTxSeq:count 	0
attr interpolationmode  none
attr title  "ping tx seq, count"
scalar StaticHierarchical.gw[2].pingApp[0] 	numLost:last 	-nan
attr interpolationmode  none
attr title  "pings lost, last"
statistic StaticHierarchical.gw[2].pingApp[0] 	rtt:histogram
field count 0
field mean -nan
field stddev -nan
field sum 0
field sqrsum 0
field min -nan
field max -nan
attr interpolationmode  none
attr title  "ping round-trip time, histogram"
attr unit  s
bin	-INF	0
bin	-0.5	0
bin	-0.46666666666667	0
bin	-0.43333333333333	0
bin	-0.4	0
bin	-0.36666666666667	0
bin	-0.33333333333333	0
bin	-0.3	0
bin	-0.26666666666667	0
bin	-0.23333333333333	0
bin	-0.2	0
bin	-0.16666666666667	0
bin	-0.13333333333333	0
bin	-0.1	0
bin	-0.066666666666667	0
bin	-0.033333333333333	0
bin	0	0
bin	0.033333333333333	0
bin	0.066666666666667	0
bin	0.1	0
bin	0.13333333333333	0
bin	0.16666666666667	0
bin	0.2	0
bin	0.23333333333333	0
bin	0.26666666666667	0
bin	0.3	0
bin	0.33333333333333	0
bin	0.36666666666667	0
bin	0.4	0
bin	0.43333333333333	0
bin	0.46666666666667	0
bin	0.5	0
scalar StaticHierarchical.gw[2].pingTestApp[0] 	numOutOfOrderArrivals:last 	-nan
attr interpolationmode  none
attr title  "ping out-of-order arrivals, last"
scalar StaticHierarchical.gw[2].pingTestApp[0] 	pingRxSeq:count 	0
attr interpolationmode  none
attr title  "ping rx seq, count"
scalar StaticHierarchical.gw[2].pingTestApp[0] 	pingTxSeq:count 	0
attr interpolationmode  none
attr title  "ping tx seq, count"
scalar StaticHierarchical.gw[2].pingTestApp[0] 	numLost:last 	-nan
attr interpolationmode  none
attr title  "pings lost, last"
statistic StaticHierarchical.gw[2].pingTestApp[0] 	rtt:histogram
field count 0
field mean -nan
field stddev -nan
field sum 0
field sqrsum 0
field min -nan
field max -nan
attr interpolationmode  none
attr title  "ping round-trip time, histogram"
attr unit  s
bin	-INF	0
bin	-0.5	0
bin	-0.46666666666667	0
bin	-0.43333333333333	0
bin	-0.4	0
bin	-0.36666666666667	0
bin	-0.33333333333333	0
bin	-0.3	0
bin	-0.26666666666667	0
bin	-0.23333333333333	0
bin	-0.2	0
bin	-0.16666666666667	0
bin	-0.13333333333333	0
bin	-0.1	0
bin	-0.066666666666667	0
bin	-0.033333333333333	0
bin	0	0
bin	0.033333333333333	0
bin	0.066666666666667	0
bin	0.1	0
bin	0.13333333333333	0
bin	0.16666666666667	0
bin	0.2	0
bin	0.23333333333333	0
bin	0.26666666666667	0
bin	0.3	0
bin	0.33333333333333	0
bin	0.36666666666667	0
bin	0.4	0
bin	0.43333333333333	0
bin	0.46666666666667	0
bin	0.5	0
scalar StaticHierarchical.gw[3].networkLayer.arp 	failedARPResolution:count 	0
attr title  "ARP failed resolutions, count"
scalar StaticHierarchical.gw[3].networkLayer.arp 	completedARPResolution:count 	29
attr title  "ARP completed resolutions, count"
scalar StaticHierarchical.gw[3].networkLayer.arp 	initiatedARPResolution:count 	12
attr title  "ARP initiated resolutions, count"
scalar StaticHierarchical.gw[3].networkLayer.arp 	sentReply:count 	12
attr title  "ARP replies sent, count"
scalar StaticHierarchical.gw[3].networkLayer.arp 	sentReq:count 	14
attr title  "ARP request sent, count"
scalar StaticHierarchical.gw[3].lo0.lo 	droppedPkBitError:count 	0
attr interpolationmode  none
attr source  dropPkBitError
attr title  "packets dropped/bit error, count"
scalar StaticHierarchical.gw[3].lo0.lo 	droppedPkBitError:sum(packetBytes) 	0
attr interpolationmode  none
attr source  dropPkBitError
attr title  "packets dropped/bit error, sum(packetBytes)"
scalar StaticHierarchical.gw[3].lo0.lo 	rcvdPkFromHL:count 	0
attr interpolationmode  none
attr source  packetReceivedFromUpper
attr title  "packets received from higher layer, count"
scalar StaticHierarchical.gw[3].lo0.lo 	rcvdPkFromHL:sum(packetBytes) 	0
attr interpolationmode  none
attr source  packetReceivedFromUpper
attr title  "packets received from higher layer, sum(packetBytes)"
scalar StaticHierarchical.gw[3].lo0.lo 	passedUpPk:count 	0
attr interpolationmode  none
attr source  packetSentToUpper
attr title  "packets passed to higher layer, count"
scalar StaticHierarchical.gw[3].lo0.lo 	passedUpPk:sum(packetBytes) 	0
attr interpolationmode  none
attr source  packetSentToUpper
attr title  "packets passed to higher layer, sum(packetBytes)"
scalar StaticHierarchical.gw[3].wlan[0].mgmt 	dataQueueLen:max 	0
attr interpolationmode  sample-hold
attr title  "data queue length, max"
scalar StaticHierarchical.gw[3].wlan[0].mgmt 	dataQueueLen:timeavg 	0
attr interpolationmode  sample-hold
attr title  "data queue length, timeavg"
scalar StaticHierarchical.gw[3].wlan[0].mgmt 	dropPkByQueue:count 	0
attr interpolationmode  none
attr source  dropPkByQueue
attr title  "packets dropped by queue, count"
scalar StaticHierarchical.gw[3].wlan[0].mgmt 	dropPkByQueue:sum(packetBytes) 	0
attr interpolationmode  none
attr source  dropPkByQueue
attr title  "packets dropped by queue, sum(packetBytes)"
scalar StaticHierarchical.gw[3].wlan[0].mac 	"number of received packets" 	0
scalar StaticHierarchical.gw[3].wlan[0].mac 	"number of collisions" 	0
scalar StaticHierarchical.gw[3].wlan[0].mac 	"number of internal collisions" 	0
scalar StaticHierarchical.gw[3].wlan[0].mac 	"number of retry for AC 0" 	0
scalar StaticHierarchical.gw[3].wlan[0].mac 	"sent and received bits" 	0
scalar StaticHierarchical.gw[3].wlan[0].mac 	"sent packet within AC 0" 	0
scalar StaticHierarchical.gw[3].wlan[0].mac 	"sent in TXOP " 	0
scalar StaticHierarchical.gw[3].wlan[0].mac 	"sentWithoutRetry AC 0" 	0
scalar StaticHierarchical.gw[3].wlan[0].mac 	"numGivenUp AC 0" 	0
scalar StaticHierarchical.gw[3].wlan[0].mac 	"numDropped AC 0" 	0
scalar StaticHierarchical.gw[3].wlan[0].mac 	rcvdPkFromHL:count 	0
attr interpolationmode  none
attr source  packetReceivedFromUpper
attr title  "packets received from higher layer, count"
scalar StaticHierarchical.gw[3].wlan[0].mac 	rcvdPkFromHL:sum(packetBytes) 	0
attr interpolationmode  none
attr source  packetReceivedFromUpper
attr title  "packets received from higher layer, sum(packetBytes)"
scalar StaticHierarchical.gw[3].wlan[0].mac 	passedUpPk:count 	0
attr interpolationmode  none
attr source  packetSentToUpper
attr title  "packets passed to higher layer, count"
scalar StaticHierarchical.gw[3].wlan[0].mac 	passedUpPk:sum(packetBytes) 	0
attr interpolationmode  none
attr source  packetSentToUpper
attr title  "packets passed to higher layer, sum(packetBytes)"
scalar StaticHierarchical.gw[3].wlan[0].mac 	rcvdPkFromLL:count 	0
attr interpolationmode  none
attr source  packetReceivedFromLower
attr title  "packets received from lower layer, count"
scalar StaticHierarchical.gw[3].wlan[0].mac 	rcvdPkFromLL:sum(packetBytes) 	0
attr interpolationmode  none
attr source  packetReceivedFromLower
attr title  "packets received from lower layer, sum(packetBytes)"
scalar StaticHierarchical.gw[3].wlan[0].mac 	sentDownPk:count 	0
attr interpolationmode  none
attr source  packetSentToLower
attr title  "packets sent to lower layer, count"
scalar StaticHierarchical.gw[3].wlan[0].mac 	sentDownPk:sum(packetBytes) 	0
attr interpolationmode  none
attr source  packetSentToLower
attr title  "packets sent to lower layer, sum(packetBytes)"
scalar StaticHierarchical.gw[3].wlan[0].radio 	lossRate:min 	-nan
attr interpolationmode  backward-sample-hold
attr title  "packet loss rate, min"
scalar StaticHierarchical.gw[3].wlan[0].radio 	lossRate:max 	-nan
attr interpolationmode  backward-sample-hold
attr title  "packet loss rate, max"
scalar StaticHierarchical.gw[3].wlan[0].radio 	lossRate:timeavg 	-nan
attr interpolationmode  backward-sample-hold
attr title  "packet loss rate, timeavg"
statistic StaticHierarchical.gw[3].wlan[0].radio 	channelNo:histogram
field count 1
field mean 3
field stddev -nan
field sum 3
field sqrsum 9
field min 3
field max 3
attr interpolationmode  sample-hold
attr title  "channel no, histogram"
bin	-INF	0
bin	2	0
bin	3	1
bin	4	0
scalar StaticHierarchical.gw[3].wlan[0].radio 	bitrate:min 	11000000
attr interpolationmode  sample-hold
attr title  "tx bitrate, min"
attr unit  bps
scalar StaticHierarchical.gw[3].wlan[0].radio 	bitrate:max 	11000000
attr interpolationmode  sample-hold
attr title  "tx bitrate, max"
attr unit  bps
scalar StaticHierarchical.gw[3].wlan[0].radio 	bitrate:timeavg 	11000000
attr interpolationmode  sample-hold
attr title  "tx bitrate, timeavg"
attr unit  bps
scalar StaticHierarchical.gw[3].wlan[0].radio 	radioState:count 	1
attr interpolationmode  sample-hold
attr title  "radio state (enum), count"
scalar StaticHierarchical.gw[3].wlan[1].mgmt 	dataQueueLen:max 	10
attr interpolationmode  sample-hold
attr title  "data queue length, max"
scalar StaticHierarchical.gw[3].wlan[1].mgmt 	dataQueueLen:timeavg 	0.00145309144
attr interpolationmode  sample-hold
attr title  "data queue length, timeavg"
scalar StaticHierarchical.gw[3].wlan[1].mgmt 	dropPkByQueue:count 	73
attr interpolationmode  none
attr source  dropPkByQueue
attr title  "packets dropped by queue, count"
scalar StaticHierarchical.gw[3].wlan[1].mgmt 	dropPkByQueue:sum(packetBytes) 	13870
attr interpolationmode  none
attr source  dropPkByQueue
attr title  "packets dropped by queue, sum(packetBytes)"
scalar StaticHierarchical.gw[3].wlan[1].mac 	"number of received packets" 	64098
scalar StaticHierarchical.gw[3].wlan[1].mac 	"number of collisions" 	18884
scalar StaticHierarchical.gw[3].wlan[1].mac 	"number of internal collisions" 	0
scalar StaticHierarchical.gw[3].wlan[1].mac 	"number of retry for AC 0" 	8035
scalar StaticHierarchical.gw[3].wlan[1].mac 	"sent and received bits" 	97197280
scalar StaticHierarchical.gw[3].wlan[1].mac 	"sent packet within AC 0" 	63948
scalar StaticHierarchical.gw[3].wlan[1].mac 	"sent in TXOP " 	0
scalar StaticHierarchical.gw[3].wlan[1].mac 	"sentWithoutRetry AC 0" 	60545
scalar StaticHierarchical.gw[3].wlan[1].mac 	"numGivenUp AC 0" 	17
scalar StaticHierarchical.gw[3].wlan[1].mac 	"numDropped AC 0" 	0
scalar StaticHierarchical.gw[3].wlan[1].mac 	rcvdPkFromHL:count 	63979
attr interpolationmode  none
attr source  packetReceivedFromUpper
attr title  "packets received from higher layer, count"
scalar StaticHierarchical.gw[3].wlan[1].mac 	rcvdPkFromHL:sum(packetBytes) 	12152890
attr interpolationmode  none
attr source  packetReceivedFromUpper
attr title  "packets received from higher layer, sum(packetBytes)"
scalar StaticHierarchical.gw[3].wlan[1].mac 	passedUpPk:count 	64055
attr interpolationmode  none
attr source  packetSentToUpper
attr title  "packets passed to higher layer, count"
scalar StaticHierarchical.gw[3].wlan[1].mac 	passedUpPk:sum(packetBytes) 	12166970
attr interpolationmode  none
attr source  packetSentToUpper
attr title  "packets passed to higher layer, sum(packetBytes)"
scalar StaticHierarchical.gw[3].wlan[1].mac 	rcvdPkFromLL:count 	205309
attr interpolationmode  none
attr source  packetReceivedFromLower
attr title  "packets received from lower layer, count"
scalar StaticHierarchical.gw[3].wlan[1].mac 	rcvdPkFromLL:sum(packetBytes) 	22523294
attr interpolationmode  none
attr source  packetReceivedFromLower
attr title  "packets received from lower layer, sum(packetBytes)"
scalar StaticHierarchical.gw[3].wlan[1].mac 	sentDownPk:count 	136112
attr interpolationmode  none
attr source  packetSentToLower
attr title  "packets sent to lower layer, count"
scalar StaticHierarchical.gw[3].wlan[1].mac 	sentDownPk:sum(packetBytes) 	14576792
attr interpolationmode  none
attr source  packetSentToLower
attr title  "packets sent to lower layer, sum(packetBytes)"
scalar StaticHierarchical.gw[3].wlan[1].radio 	lossRate:min 	0
attr interpolationmode  backward-sample-hold
attr title  "packet loss rate, min"
scalar StaticHierarchical.gw[3].wlan[1].radio 	lossRate:max 	0.4
attr interpolationmode  backward-sample-hold
attr title  "packet loss rate, max"
scalar StaticHierarchical.gw[3].wlan[1].radio 	lossRate:timeavg 	0.094671537215426
attr interpolationmode  backward-sample-hold
attr title  "packet loss rate, timeavg"
statistic StaticHierarchical.gw[3].wlan[1].radio 	channelNo:histogram
field count 1
field mean 5
field stddev -nan
field sum 5
field sqrsum 25
field min 5
field max 5
attr interpolationmode  sample-hold
attr title  "channel no, histogram"
bin	-INF	0
bin	4	0
bin	5	1
bin	6	0
scalar StaticHierarchical.gw[3].wlan[1].radio 	bitrate:min 	11000000
attr interpolationmode  sample-hold
attr title  "tx bitrate, min"
attr unit  bps
scalar StaticHierarchical.gw[3].wlan[1].radio 	bitrate:max 	11000000
attr interpolationmode  sample-hold
attr title  "tx bitrate, max"
attr unit  bps
scalar StaticHierarchical.gw[3].wlan[1].radio 	bitrate:timeavg 	11000000
attr interpolationmode  sample-hold
attr title  "tx bitrate, timeavg"
attr unit  bps
scalar StaticHierarchical.gw[3].wlan[1].radio 	radioState:count 	682017
attr interpolationmode  sample-hold
attr title  "radio state (enum), count"
scalar StaticHierarchical.gw[3].udp 	droppedPkBadChecksum:count 	0
attr interpolationmode  none
attr title  "packets dropped (checksum error), count"
scalar StaticHierarchical.gw[3].udp 	droppedPkWrongPort:count 	0
attr interpolationmode  none
attr title  "packets dropped (wrong port), count"
scalar StaticHierarchical.gw[3].udp 	passedUpPk:count 	0
attr interpolationmode  none
attr title  "packets passed up, count"
scalar StaticHierarchical.gw[3].udp 	rcvdPk:count 	0
attr interpolationmode  none
attr source  rcvdPk
attr title  "packets received, count"
scalar StaticHierarchical.gw[3].udp 	rcvdPk:sum(packetBytes) 	0
attr interpolationmode  none
attr source  rcvdPk
attr title  "packets received, sum(packetBytes)"
scalar StaticHierarchical.gw[3].udp 	sentPk:count 	0
attr interpolationmode  none
attr source  sentPk
attr title  "packets sent, count"
scalar StaticHierarchical.gw[3].udp 	sentPk:sum(packetBytes) 	0
attr interpolationmode  none
attr source  sentPk
attr title  "packets sent, sum(packetBytes)"
scalar StaticHierarchical.gw[3].pingApp[0] 	numOutOfOrderArrivals:last 	-nan
attr interpolationmode  none
attr title  "ping out-of-order arrivals, last"
scalar StaticHierarchical.gw[3].pingApp[0] 	pingRxSeq:count 	0
attr interpolationmode  none
attr title  "ping rx seq, count"
scalar StaticHierarchical.gw[3].pingApp[0] 	pingTxSeq:count 	0
attr interpolationmode  none
attr title  "ping tx seq, count"
scalar StaticHierarchical.gw[3].pingApp[0] 	numLost:last 	-nan
attr interpolationmode  none
attr title  "pings lost, last"
statistic StaticHierarchical.gw[3].pingApp[0] 	rtt:histogram
field count 0
field mean -nan
field stddev -nan
field sum 0
field sqrsum 0
field min -nan
field max -nan
attr interpolationmode  none
attr title  "ping round-trip time, histogram"
attr unit  s
bin	-INF	0
bin	-0.5	0
bin	-0.46666666666667	0
bin	-0.43333333333333	0
bin	-0.4	0
bin	-0.36666666666667	0
bin	-0.33333333333333	0
bin	-0.3	0
bin	-0.26666666666667	0
bin	-0.23333333333333	0
bin	-0.2	0
bin	-0.16666666666667	0
bin	-0.13333333333333	0
bin	-0.1	0
bin	-0.066666666666667	0
bin	-0.033333333333333	0
bin	0	0
bin	0.033333333333333	0
bin	0.066666666666667	0
bin	0.1	0
bin	0.13333333333333	0
bin	0.16666666666667	0
bin	0.2	0
bin	0.23333333333333	0
bin	0.26666666666667	0
bin	0.3	0
bin	0.33333333333333	0
bin	0.36666666666667	0
bin	0.4	0
bin	0.43333333333333	0
bin	0.46666666666667	0
bin	0.5	0
scalar StaticHierarchical.gw[3].pingTestApp[0] 	numOutOfOrderArrivals:last 	-nan
attr interpolationmode  none
attr title  "ping out-of-order arrivals, last"
scalar StaticHierarchical.gw[3].pingTestApp[0] 	pingRxSeq:count 	0
attr interpolationmode  none
attr title  "ping rx seq, count"
scalar StaticHierarchical.gw[3].pingTestApp[0] 	pingTxSeq:count 	0
attr interpolationmode  none
attr title  "ping tx seq, count"
scalar StaticHierarchical.gw[3].pingTestApp[0] 	numLost:last 	-nan
attr interpolationmode  none
attr title  "pings lost, last"
statistic StaticHierarchical.gw[3].pingTestApp[0] 	rtt:histogram
field count 0
field mean -nan
field stddev -nan
field sum 0
field sqrsum 0
field min -nan
field max -nan
attr interpolationmode  none
attr title  "ping round-trip time, histogram"
attr unit  s
bin	-INF	0
bin	-0.5	0
bin	-0.46666666666667	0
bin	-0.43333333333333	0
bin	-0.4	0
bin	-0.36666666666667	0
bin	-0.33333333333333	0
bin	-0.3	0
bin	-0.26666666666667	0
bin	-0.23333333333333	0
bin	-0.2	0
bin	-0.16666666666667	0
bin	-0.13333333333333	0
bin	-0.1	0
bin	-0.066666666666667	0
bin	-0.033333333333333	0
bin	0	0
bin	0.033333333333333	0
bin	0.066666666666667	0
bin	0.1	0
bin	0.13333333333333	0
bin	0.16666666666667	0
bin	0.2	0
bin	0.23333333333333	0
bin	0.26666666666667	0
bin	0.3	0
bin	0.33333333333333	0
bin	0.36666666666667	0
bin	0.4	0
bin	0.43333333333333	0
bin	0.46666666666667	0
bin	0.5	0
scalar StaticHierarchical.gw[4].networkLayer.arp 	failedARPResolution:count 	0
attr title  "ARP failed resolutions, count"
scalar StaticHierarchical.gw[4].networkLayer.arp 	completedARPResolution:count 	92
attr title  "ARP completed resolutions, count"
scalar StaticHierarchical.gw[4].networkLayer.arp 	initiatedARPResolution:count 	48
attr title  "ARP initiated resolutions, count"
scalar StaticHierarchical.gw[4].networkLayer.arp 	sentReply:count 	17
attr title  "ARP replies sent, count"
scalar StaticHierarchical.gw[4].networkLayer.arp 	sentReq:count 	50
attr title  "ARP request sent, count"
scalar StaticHierarchical.gw[4].lo0.lo 	droppedPkBitError:count 	0
attr interpolationmode  none
attr source  dropPkBitError
attr title  "packets dropped/bit error, count"
scalar StaticHierarchical.gw[4].lo0.lo 	droppedPkBitError:sum(packetBytes) 	0
attr interpolationmode  none
attr source  dropPkBitError
attr title  "packets dropped/bit error, sum(packetBytes)"
scalar StaticHierarchical.gw[4].lo0.lo 	rcvdPkFromHL:count 	0
attr interpolationmode  none
attr source  packetReceivedFromUpper
attr title  "packets received from higher layer, count"
scalar StaticHierarchical.gw[4].lo0.lo 	rcvdPkFromHL:sum(packetBytes) 	0
attr interpolationmode  none
attr source  packetReceivedFromUpper
attr title  "packets received from higher layer, sum(packetBytes)"
scalar StaticHierarchical.gw[4].lo0.lo 	passedUpPk:count 	0
attr interpolationmode  none
attr source  packetSentToUpper
attr title  "packets passed to higher layer, count"
scalar StaticHierarchical.gw[4].lo0.lo 	passedUpPk:sum(packetBytes) 	0
attr interpolationmode  none
attr source  packetSentToUpper
attr title  "packets passed to higher layer, sum(packetBytes)"
scalar StaticHierarchical.gw[4].wlan[0].mgmt 	dataQueueLen:max 	4
attr interpolationmode  sample-hold
attr title  "data queue length, max"
scalar StaticHierarchical.gw[4].wlan[0].mgmt 	dataQueueLen:timeavg 	5.8973555555556e-05
attr interpolationmode  sample-hold
attr title  "data queue length, timeavg"
scalar StaticHierarchical.gw[4].wlan[0].mgmt 	dropPkByQueue:count 	0
attr interpolationmode  none
attr source  dropPkByQueue
attr title  "packets dropped by queue, count"
scalar StaticHierarchical.gw[4].wlan[0].mgmt 	dropPkByQueue:sum(packetBytes) 	0
attr interpolationmode  none
attr source  dropPkByQueue
attr title  "packets dropped by queue, sum(packetBytes)"
scalar StaticHierarchical.gw[4].wlan[0].mac 	"number of received packets" 	32182
scalar StaticHierarchical.gw[4].wlan[0].mac 	"number of collisions" 	728
scalar StaticHierarchical.gw[4].wlan[0].mac 	"number of internal collisions" 	0
scalar StaticHierarchical.gw[4].wlan[0].mac 	"number of retry for AC 0" 	25
scalar StaticHierarchical.gw[4].wlan[0].mac 	"sent and received bits" 	48649360
scalar StaticHierarchical.gw[4].wlan[0].mac 	"sent packet within AC 0" 	31997
scalar StaticHierarchical.gw[4].wlan[0].mac 	"sent in TXOP " 	0
scalar StaticHierarchical.gw[4].wlan[0].mac 	"sentWithoutRetry AC 0" 	31972
scalar StaticHierarchical.gw[4].wlan[0].mac 	"numGivenUp AC 0" 	0
scalar StaticHierarchical.gw[4].wlan[0].mac 	"numDropped AC 0" 	0
scalar StaticHierarchical.gw[4].wlan[0].mac 	rcvdPkFromHL:count 	32039
attr interpolationmode  none
attr source  packetReceivedFromUpper
attr title  "packets received from higher layer, count"
scalar StaticHierarchical.gw[4].wlan[0].mac 	rcvdPkFromHL:sum(packetBytes) 	6081170
attr interpolationmode  none
attr source  packetReceivedFromUpper
attr title  "packets received from higher layer, sum(packetBytes)"
scalar StaticHierarchical.gw[4].wlan[0].mac 	passedUpPk:count 	32211
attr interpolationmode  none
attr source  packetSentToUpper
attr title  "packets passed to higher layer, count"
scalar StaticHierarchical.gw[4].wlan[0].mac 	passedUpPk:sum(packetBytes) 	6110850
attr interpolationmode  none
attr source  packetSentToUpper
attr title  "packets passed to higher layer, sum(packetBytes)"
scalar StaticHierarchical.gw[4].wlan[0].mac 	rcvdPkFromLL:count 	101746
attr interpolationmode  none
attr source  packetReceivedFromLower
attr title  "packets received from lower layer, count"
scalar StaticHierarchical.gw[4].wlan[0].mac 	rcvdPkFromLL:sum(packetBytes) 	10444628
attr interpolationmode  none
attr source  packetReceivedFromLower
attr title  "packets received from lower layer, sum(packetBytes)"
scalar StaticHierarchical.gw[4].wlan[0].mac 	sentDownPk:count 	64246
attr interpolationmode  none
attr source  packetSentToLower
attr title  "packets sent to lower layer, count"
scalar StaticHierarchical.gw[4].wlan[0].mac 	sentDownPk:sum(packetBytes) 	6536468
attr interpolationmode  none
attr source  packetSentToLower
attr title  "packets sent to lower layer, sum(packetBytes)"
scalar StaticHierarchical.gw[4].wlan[0].radio 	lossRate:min 	0
attr interpolationmode  backward-sample-hold
attr title  "packet loss rate, min"
scalar StaticHierarchical.gw[4].wlan[0].radio 	lossRate:max 	0.16
attr interpolationmode  backward-sample-hold
attr title  "packet loss rate, max"
scalar StaticHierarchical.gw[4].wlan[0].radio 	lossRate:timeavg 	0.007104391127142
attr interpolationmode  backward-sample-hold
attr title  "packet loss rate, timeavg"
statistic StaticHierarchical.gw[4].wlan[0].radio 	channelNo:histogram
field count 1
field mean 4
field stddev -nan
field sum 4
field sqrsum 16
field min 4
field max 4
attr interpolationmode  sample-hold
attr title  "channel no, histogram"
bin	-INF	0
bin	3	0
bin	4	1
bin	5	0
scalar StaticHierarchical.gw[4].wlan[0].radio 	bitrate:min 	11000000
attr interpolationmode  sample-hold
attr title  "tx bitrate, min"
attr unit  bps
scalar StaticHierarchical.gw[4].wlan[0].radio 	bitrate:max 	11000000
attr interpolationmode  sample-hold
attr title  "tx bitrate, max"
attr unit  bps
scalar StaticHierarchical.gw[4].wlan[0].radio 	bitrate:timeavg 	11000000
attr interpolationmode  sample-hold
attr title  "tx bitrate, timeavg"
attr unit  bps
scalar StaticHierarchical.gw[4].wlan[0].radio 	radioState:count 	331808
attr interpolationmode  sample-hold
attr title  "radio state (enum), count"
scalar StaticHierarchical.gw[4].wlan[1].mgmt 	dataQueueLen:max 	10
attr interpolationmode  sample-hold
attr title  "data queue length, max"
scalar StaticHierarchical.gw[4].wlan[1].mgmt 	dataQueueLen:timeavg 	0.0016632618055556
attr interpolationmode  sample-hold
attr title  "data queue length, timeavg"
scalar StaticHierarchical.gw[4].wlan[1].mgmt 	dropPkByQueue:count 	79
attr interpolationmode  none
attr source  dropPkByQueue
attr title  "packets dropped by queue, count"
scalar StaticHierarchical.gw[4].wlan[1].mgmt 	dropPkByQueue:sum(packetBytes) 	15010
attr interpolationmode  none
attr source  dropPkByQueue
attr title  "packets dropped by queue, sum(packetBytes)"
scalar StaticHierarchical.gw[4].wlan[1].mac 	"number of received packets" 	32007
scalar StaticHierarchical.gw[4].wlan[1].mac 	"number of collisions" 	483
scalar StaticHierarchical.gw[4].wlan[1].mac 	"number of internal collisions" 	0
scalar StaticHierarchical.gw[4].wlan[1].mac 	"number of retry for AC 0" 	17545
scalar StaticHierarchical.gw[4].wlan[1].mac 	"sent and received bits" 	48647840
scalar StaticHierarchical.gw[4].wlan[1].mac 	"sent packet within AC 0" 	32006
scalar StaticHierarchical.gw[4].wlan[1].mac 	"sent in TXOP " 	0
scalar StaticHierarchical.gw[4].wlan[1].mac 	"sentWithoutRetry AC 0" 	25496
scalar StaticHierarchical.gw[4].wlan[1].mac 	"numGivenUp AC 0" 	56
scalar StaticHierarchical.gw[4].wlan[1].mac 	"numDropped AC 0" 	0
scalar StaticHierarchical.gw[4].wlan[1].mac 	rcvdPkFromHL:count 	32070
attr interpolationmode  none
attr source  packetReceivedFromUpper
attr title  "packets received from higher layer, count"
scalar StaticHierarchical.gw[4].wlan[1].mac 	rcvdPkFromHL:sum(packetBytes) 	6091500
attr interpolationmode  none
attr source  packetReceivedFromUpper
attr title  "packets received from higher layer, sum(packetBytes)"
scalar StaticHierarchical.gw[4].wlan[1].mac 	passedUpPk:count 	32006
attr interpolationmode  none
attr source  packetSentToUpper
attr title  "packets passed to higher layer, count"
scalar StaticHierarchical.gw[4].wlan[1].mac 	passedUpPk:sum(packetBytes) 	6078860
attr interpolationmode  none
attr source  packetSentToUpper
attr title  "packets passed to higher layer, sum(packetBytes)"
scalar StaticHierarchical.gw[4].wlan[1].mac 	rcvdPkFromLL:count 	136015
attr interpolationmode  none
attr source  packetReceivedFromLower
attr title  "packets received from lower layer, count"
scalar StaticHierarchical.gw[4].wlan[1].mac 	rcvdPkFromLL:sum(packetBytes) 	14564994
attr interpolationmode  none
attr source  packetReceivedFromLower
attr title  "packets received from lower layer, sum(packetBytes)"
scalar StaticHierarchical.gw[4].wlan[1].mac 	sentDownPk:count 	81622
attr interpolationmode  none
attr source  packetSentToLower
attr title  "packets sent to lower layer, count"
scalar StaticHierarchical.gw[4].wlan[1].mac 	sentDownPk:sum(packetBytes) 	9872068
attr interpolationmode  none
attr source  packetSentToLower
attr title  "packets sent to lower layer, sum(packetBytes)"
scalar StaticHierarchical.gw[4].wlan[1].radio 	lossRate:min 	0
attr interpolationmode  backward-sample-hold
attr title  "packet loss rate, min"
scalar StaticHierarchical.gw[4].wlan[1].radio 	lossRate:max 	0.06
attr interpolationmode  backward-sample-hold
attr title  "packet loss rate, max"
scalar StaticHierarchical.gw[4].wlan[1].radio 	lossRate:timeavg 	0.0035418434916141
attr interpolationmode  backward-sample-hold
attr title  "packet loss rate, timeavg"
statistic StaticHierarchical.gw[4].wlan[1].radio 	channelNo:histogram
field count 1
field mean 5
field stddev -nan
field sum 5
field sqrsum 25
field min 5
field max 5
attr interpolationmode  sample-hold
attr title  "channel no, histogram"
bin	-INF	0
bin	4	0
bin	5	1
bin	6	0
scalar StaticHierarchical.gw[4].wlan[1].radio 	bitrate:min 	11000000
attr interpolationmode  sample-hold
attr title  "tx bitrate, min"
attr unit  bps
scalar StaticHierarchical.gw[4].wlan[1].radio 	bitrate:max 	11000000
attr interpolationmode  sample-hold
attr title  "tx bitrate, max"
attr unit  bps
scalar StaticHierarchical.gw[4].wlan[1].radio 	bitrate:timeavg 	11000000
attr interpolationmode  sample-hold
attr title  "tx bitrate, timeavg"
attr unit  bps
scalar StaticHierarchical.gw[4].wlan[1].radio 	radioState:count 	435603
attr interpolationmode  sample-hold
attr title  "radio state (enum), count"
scalar StaticHierarchical.gw[4].udp 	droppedPkBadChecksum:count 	0
attr interpolationmode  none
attr title  "packets dropped (checksum error), count"
scalar StaticHierarchical.gw[4].udp 	droppedPkWrongPort:count 	0
attr interpolationmode  none
attr title  "packets dropped (wrong port), count"
scalar StaticHierarchical.gw[4].udp 	passedUpPk:count 	0
attr interpolationmode  none
attr title  "packets passed up, count"
scalar StaticHierarchical.gw[4].udp 	rcvdPk:count 	0
attr interpolationmode  none
attr source  rcvdPk
attr title  "packets received, count"
scalar StaticHierarchical.gw[4].udp 	rcvdPk:sum(packetBytes) 	0
attr interpolationmode  none
attr source  rcvdPk
attr title  "packets received, sum(packetBytes)"
scalar StaticHierarchical.gw[4].udp 	sentPk:count 	0
attr interpolationmode  none
attr source  sentPk
attr title  "packets sent, count"
scalar StaticHierarchical.gw[4].udp 	sentPk:sum(packetBytes) 	0
attr interpolationmode  none
attr source  sentPk
attr title  "packets sent, sum(packetBytes)"
scalar StaticHierarchical.gw[4].pingApp[0] 	numOutOfOrderArrivals:last 	-nan
attr interpolationmode  none
attr title  "ping out-of-order arrivals, last"
scalar StaticHierarchical.gw[4].pingApp[0] 	pingRxSeq:count 	0
attr interpolationmode  none
attr title  "ping rx seq, count"
scalar StaticHierarchical.gw[4].pingApp[0] 	pingTxSeq:count 	0
attr interpolationmode  none
attr title  "ping tx seq, count"
scalar StaticHierarchical.gw[4].pingApp[0] 	numLost:last 	-nan
attr interpolationmode  none
attr title  "pings lost, last"
statistic StaticHierarchical.gw[4].pingApp[0] 	rtt:histogram
field count 0
field mean -nan
field stddev -nan
field sum 0
field sqrsum 0
field min -nan
field max -nan
attr interpolationmode  none
attr title  "ping round-trip time, histogram"
attr unit  s
bin	-INF	0
bin	-0.5	0
bin	-0.46666666666667	0
bin	-0.43333333333333	0
bin	-0.4	0
bin	-0.36666666666667	0
bin	-0.33333333333333	0
bin	-0.3	0
bin	-0.26666666666667	0
bin	-0.23333333333333	0
bin	-0.2	0
bin	-0.16666666666667	0
bin	-0.13333333333333	0
bin	-0.1	0
bin	-0.066666666666667	0
bin	-0.033333333333333	0
bin	0	0
bin	0.033333333333333	0
bin	0.066666666666667	0
bin	0.1	0
bin	0.13333333333333	0
bin	0.16666666666667	0
bin	0.2	0
bin	0.23333333333333	0
bin	0.26666666666667	0
bin	0.3	0
bin	0.33333333333333	0
bin	0.36666666666667	0
bin	0.4	0
bin	0.43333333333333	0
bin	0.46666666666667	0
bin	0.5	0
scalar StaticHierarchical.gw[4].pingTestApp[0] 	numOutOfOrderArrivals:last 	-nan
attr interpolationmode  none
attr title  "ping out-of-order arrivals, last"
scalar StaticHierarchical.gw[4].pingTestApp[0] 	pingRxSeq:count 	0
attr interpolationmode  none
attr title  "ping rx seq, count"
scalar StaticHierarchical.gw[4].pingTestApp[0] 	pingTxSeq:count 	0
attr interpolationmode  none
attr title  "ping tx seq, count"
scalar StaticHierarchical.gw[4].pingTestApp[0] 	numLost:last 	-nan
attr interpolationmode  none
attr title  "pings lost, last"
statistic StaticHierarchical.gw[4].pingTestApp[0] 	rtt:histogram
field count 0
field mean -nan
field stddev -nan
field sum 0
field sqrsum 0
field min -nan
field max -nan
attr interpolationmode  none
attr title  "ping round-trip time, histogram"
attr unit  s
bin	-INF	0
bin	-0.5	0
bin	-0.46666666666667	0
bin	-0.43333333333333	0
bin	-0.4	0
bin	-0.36666666666667	0
bin	-0.33333333333333	0
bin	-0.3	0
bin	-0.26666666666667	0
bin	-0.23333333333333	0
bin	-0.2	0
bin	-0.16666666666667	0
bin	-0.13333333333333	0
bin	-0.1	0
bin	-0.066666666666667	0
bin	-0.033333333333333	0
bin	0	0
bin	0.033333333333333	0
bin	0.066666666666667	0
bin	0.1	0
bin	0.13333333333333	0
bin	0.16666666666667	0
bin	0.2	0
bin	0.23333333333333	0
bin	0.26666666666667	0
bin	0.3	0
bin	0.33333333333333	0
bin	0.36666666666667	0
bin	0.4	0
bin	0.43333333333333	0
bin	0.46666666666667	0
bin	0.5	0
scalar StaticHierarchical.host[0].networkLayer.arp 	failedARPResolution:count 	0
attr title  "ARP failed resolutions, count"
scalar StaticHierarchical.host[0].networkLayer.arp 	completedARPResolution:count 	56
attr title  "ARP completed resolutions, count"
scalar StaticHierarchical.host[0].networkLayer.arp 	initiatedARPResolution:count 	1
attr title  "ARP initiated resolutions, count"
scalar StaticHierarchical.host[0].networkLayer.arp 	sentReply:count 	11
attr title  "ARP replies sent, count"
scalar StaticHierarchical.host[0].networkLayer.arp 	sentReq:count 	1
attr title  "ARP request sent, count"
scalar StaticHierarchical.host[0].lo0.lo 	droppedPkBitError:count 	0
attr interpolationmode  none
attr source  dropPkBitError
attr title  "packets dropped/bit error, count"
scalar StaticHierarchical.host[0].lo0.lo 	droppedPkBitError:sum(packetBytes) 	0
attr interpolationmode  none
attr source  dropPkBitError
attr title  "packets dropped/bit error, sum(packetBytes)"
scalar StaticHierarchical.host[0].lo0.lo 	rcvdPkFromHL:count 	0
attr interpolationmode  none
attr source  packetReceivedFromUpper
attr title  "packets received from higher layer, count"
scalar StaticHierarchical.host[0].lo0.lo 	rcvdPkFromHL:sum(packetBytes) 	0
attr interpolationmode  none
attr source  packetReceivedFromUpper
attr title  "packets received from higher layer, sum(packetBytes)"
scalar StaticHierarchical.host[0].lo0.lo 	passedUpPk:count 	0
attr interpolationmode  none
attr source  packetSentToUpper
attr title  "packets passed to higher layer, count"
scalar StaticHierarchical.host[0].lo0.lo 	passedUpPk:sum(packetBytes) 	0
attr interpolationmode  none
attr source  packetSentToUpper
attr title  "packets passed to higher layer, sum(packetBytes)"
scalar StaticHierarchical.host[0].wlan[0].mgmt 	dataQueueLen:max 	0
attr interpolationmode  sample-hold
attr title  "data queue length, max"
scalar StaticHierarchical.host[0].wlan[0].mgmt 	dataQueueLen:timeavg 	0
attr interpolationmode  sample-hold
attr title  "data queue length, timeavg"
scalar StaticHierarchical.host[0].wlan[0].mgmt 	dropPkByQueue:count 	0
attr interpolationmode  none
attr source  dropPkByQueue
attr title  "packets dropped by queue, count"
scalar StaticHierarchical.host[0].wlan[0].mgmt 	dropPkByQueue:sum(packetBytes) 	0
attr interpolationmode  none
attr source  dropPkByQueue
attr title  "packets dropped by queue, sum(packetBytes)"
scalar StaticHierarchical.host[0].wlan[0].mac 	"number of received packets" 	4581
scalar StaticHierarchical.host[0].wlan[0].mac 	"number of collisions" 	814
scalar StaticHierarchical.host[0].wlan[0].mac 	"number of internal collisions" 	0
scalar StaticHierarchical.host[0].wlan[0].mac 	"number of retry for AC 0" 	280
scalar StaticHierarchical.host[0].wlan[0].mac 	"sent and received bits" 	7004800
scalar StaticHierarchical.host[0].wlan[0].mac 	"sent packet within AC 0" 	4615
scalar StaticHierarchical.host[0].wlan[0].mac 	"sent in TXOP " 	0
scalar StaticHierarchical.host[0].wlan[0].mac 	"sentWithoutRetry AC 0" 	4510
scalar StaticHierarchical.host[0].wlan[0].mac 	"numGivenUp AC 0" 	0
scalar StaticHierarchical.host[0].wlan[0].mac 	"numDropped AC 0" 	0
scalar StaticHierarchical.host[0].wlan[0].mac 	rcvdPkFromHL:count 	4616
attr interpolationmode  none
attr source  packetReceivedFromUpper
attr title  "packets received from higher layer, count"
scalar StaticHierarchical.host[0].wlan[0].mac 	rcvdPkFromHL:sum(packetBytes) 	875600
attr interpolationmode  none
attr source  packetReceivedFromUpper
attr title  "packets received from higher layer, sum(packetBytes)"
scalar StaticHierarchical.host[0].wlan[0].mac 	passedUpPk:count 	4643
attr interpolationmode  none
attr source  packetSentToUpper
attr title  "packets passed to higher layer, count"
scalar StaticHierarchical.host[0].wlan[0].mac 	passedUpPk:sum(packetBytes) 	874010
attr interpolationmode  none
attr source  packetSentToUpper
attr title  "packets passed to higher layer, sum(packetBytes)"
scalar StaticHierarchical.host[0].wlan[0].mac 	rcvdPkFromLL:count 	134540
attr interpolationmode  none
attr source  packetReceivedFromLower
attr title  "packets received from lower layer, count"
scalar StaticHierarchical.host[0].wlan[0].mac 	rcvdPkFromLL:sum(packetBytes) 	13815832
attr interpolationmode  none
attr source  packetReceivedFromLower
attr title  "packets received from lower layer, sum(packetBytes)"
scalar StaticHierarchical.host[0].wlan[0].mac 	sentDownPk:count 	9477
attr interpolationmode  none
attr source  packetSentToLower
attr title  "packets sent to lower layer, count"
scalar StaticHierarchical.host[0].wlan[0].mac 	sentDownPk:sum(packetBytes) 	992934
attr interpolationmode  none
attr source  packetSentToLower
attr title  "packets sent to lower layer, sum(packetBytes)"
scalar StaticHierarchical.host[0].wlan[0].radio 	lossRate:min 	0
attr interpolationmode  backward-sample-hold
attr title  "packet loss rate, min"
scalar StaticHierarchical.host[0].wlan[0].radio 	lossRate:max 	0.2
attr interpolationmode  backward-sample-hold
attr title  "packet loss rate, max"
scalar StaticHierarchical.host[0].wlan[0].radio 	lossRate:timeavg 	0.0060298144004446
attr interpolationmode  backward-sample-hold
attr title  "packet loss rate, timeavg"
statistic StaticHierarchical.host[0].wlan[0].radio 	channelNo:histogram
field count 1
field mean 0
field stddev -nan
field sum 0
field sqrsum 0
field min 0
field max 0
attr interpolationmode  sample-hold
attr title  "channel no, histogram"
bin	-INF	0
bin	-0.5	0
bin	-0.46666666666667	0
bin	-0.43333333333333	0
bin	-0.4	0
bin	-0.36666666666667	0
bin	-0.33333333333333	0
bin	-0.3	0
bin	-0.26666666666667	0
bin	-0.23333333333333	0
bin	-0.2	0
bin	-0.16666666666667	0
bin	-0.13333333333333	0
bin	-0.1	0
bin	-0.066666666666667	0
bin	-0.033333333333333	0
bin	0	1
bin	0.033333333333333	0
bin	0.066666666666667	0
bin	0.1	0
bin	0.13333333333333	0
bin	0.16666666666667	0
bin	0.2	0
bin	0.23333333333333	0
bin	0.26666666666667	0
bin	0.3	0
bin	0.33333333333333	0
bin	0.36666666666667	0
bin	0.4	0
bin	0.43333333333333	0
bin	0.46666666666667	0
bin	0.5	0
scalar StaticHierarchical.host[0].wlan[0].radio 	bitrate:min 	11000000
attr interpolationmode  sample-hold
attr title  "tx bitrate, min"
attr unit  bps
scalar StaticHierarchical.host[0].wlan[0].radio 	bitrate:max 	11000000
attr interpolationmode  sample-hold
attr title  "tx bitrate, max"
attr unit  bps
scalar StaticHierarchical.host[0].wlan[0].radio 	bitrate:timeavg 	11000000
attr interpolationmode  sample-hold
attr title  "tx bitrate, timeavg"
attr unit  bps
scalar StaticHierarchical.host[0].wlan[0].radio 	radioState:count 	288134
attr interpolationmode  sample-hold
attr title  "radio state (enum), count"
scalar StaticHierarchical.host[0].pingApp[0] 	numOutOfOrderArrivals:last 	-nan
attr interpolationmode  none
attr title  "ping out-of-order arrivals, last"
scalar StaticHierarchical.host[0].pingApp[0] 	pingRxSeq:count 	0
attr interpolationmode  none
attr title  "ping rx seq, count"
scalar StaticHierarchical.host[0].pingApp[0] 	pingTxSeq:count 	0
attr interpolationmode  none
attr title  "ping tx seq, count"
scalar StaticHierarchical.host[0].pingApp[0] 	numLost:last 	-nan
attr interpolationmode  none
attr title  "pings lost, last"
statistic StaticHierarchical.host[0].pingApp[0] 	rtt:histogram
field count 0
field mean -nan
field stddev -nan
field sum 0
field sqrsum 0
field min -nan
field max -nan
attr interpolationmode  none
attr title  "ping round-trip time, histogram"
attr unit  s
bin	-INF	0
bin	-0.5	0
bin	-0.46666666666667	0
bin	-0.43333333333333	0
bin	-0.4	0
bin	-0.36666666666667	0
bin	-0.33333333333333	0
bin	-0.3	0
bin	-0.26666666666667	0
bin	-0.23333333333333	0
bin	-0.2	0
bin	-0.16666666666667	0
bin	-0.13333333333333	0
bin	-0.1	0
bin	-0.066666666666667	0
bin	-0.033333333333333	0
bin	0	0
bin	0.033333333333333	0
bin	0.066666666666667	0
bin	0.1	0
bin	0.13333333333333	0
bin	0.16666666666667	0
bin	0.2	0
bin	0.23333333333333	0
bin	0.26666666666667	0
bin	0.3	0
bin	0.33333333333333	0
bin	0.36666666666667	0
bin	0.4	0
bin	0.43333333333333	0
bin	0.46666666666667	0
bin	0.5	0
scalar StaticHierarchical.host[0].pingTestApp[0] 	"Pings sent" 	2300
scalar StaticHierarchical.host[0].pingTestApp[0] 	"ping loss rate (%)" 	1.2608695652174
[...]
attr title  "pings lost, last"
statistic StaticHierarchical.host[27].pingTestApp[0] 	rtt:histogram
field count 2274
field mean 0.0075193969709763
field stddev 0.032295003376535
field sum 17.099108712
field sqrsum 2.4992395297999
field min 0.003953309
field max 0.99131892
attr interpolationmode  none
attr title  "ping round-trip time, histogram"
attr unit  s
bin	-INF	0
bin	-0.3818278975	0
bin	-0.3303859565	0
bin	-0.2789440155	0
bin	-0.2275020745	0
bin	-0.1760601335	0
bin	-0.1246181925	0
bin	-0.0731762515	0
bin	-0.0217343105	2259
bin	0.0297076305	12
bin	0.0811495715	0
bin	0.1325915125	0
bin	0.1840334535	0
bin	0.2354753945	0
bin	0.2869173355	0
bin	0.3383592765	0
bin	0.3898012175	0
bin	0.4412431585	0
bin	0.4926850995	0
bin	0.5441270405	0
bin	0.5955689815	0
bin	0.6470109225	0
bin	0.6984528635	0
bin	0.7498948045	1
bin	0.8013367455	0
bin	0.8527786865	1
bin	0.9042206275	0
bin	0.9556625685	1
bin	1.0071045095	0
bin	1.0585464505	0
bin	1.1099883915	0
bin	1.1614303325	0
scalar StaticHierarchical.host[28].networkLayer.arp 	failedARPResolution:count 	0
attr title  "ARP failed resolutions, count"
scalar StaticHierarchical.host[28].networkLayer.arp 	completedARPResolution:count 	43
attr title  "ARP completed resolutions, count"
scalar StaticHierarchical.host[28].networkLayer.arp 	initiatedARPResolution:count 	1
attr title  "ARP initiated resolutions, count"
scalar StaticHierarchical.host[28].networkLayer.arp 	sentReply:count 	11
attr title  "ARP replies sent, count"
scalar StaticHierarchical.host[28].networkLayer.arp 	sentReq:count 	1
attr title  "ARP request sent, count"
scalar StaticHierarchical.host[28].lo0.lo 	droppedPkBitError:count 	0
attr interpolationmode  none
attr source  dropPkBitError
attr title  "packets dropped/bit error, count"
scalar StaticHierarchical.host[28].lo0.lo 	droppedPkBitError:sum(packetBytes) 	0
attr interpolationmode  none
attr source  dropPkBitError
attr title  "packets dropped/bit error, sum(packetBytes)"
scalar StaticHierarchical.host[28].lo0.lo 	rcvdPkFromHL:count 	0
attr interpolationmode  none
attr source  packetReceivedFromUpper
attr title  "packets received from higher layer, count"
scalar StaticHierarchical.host[28].lo0.lo 	rcvdPkFromHL:sum(packetBytes) 	0
attr interpolationmode  none
attr source  packetReceivedFromUpper
attr title  "packets received from higher layer, sum(packetBytes)"
scalar StaticHierarchical.host[28].lo0.lo 	passedUpPk:count 	0
attr interpolationmode  none
attr source  packetSentToUpper
attr title  "packets passed to higher layer, count"
scalar StaticHierarchical.host[28].lo0.lo 	passedUpPk:sum(packetBytes) 	0
attr interpolationmode  none
attr source  packetSentToUpper
attr title  "packets passed to higher layer, sum(packetBytes)"
scalar StaticHierarchical.host[28].wlan[0].mgmt 	dataQueueLen:max 	1
attr interpolationmode  sample-hold
attr title  "data queue length, max"
scalar StaticHierarchical.host[28].wlan[0].mgmt 	dataQueueLen:timeavg 	1.3435e-06
attr interpolationmode  sample-hold
attr title  "data queue length, timeavg"
scalar StaticHierarchical.host[28].wlan[0].mgmt 	dropPkByQueue:count 	0
attr interpolationmode  none
attr source  dropPkByQueue
attr title  "packets dropped by queue, count"
scalar StaticHierarchical.host[28].wlan[0].mgmt 	dropPkByQueue:sum(packetBytes) 	0
attr interpolationmode  none
attr source  dropPkByQueue
attr title  "packets dropped by queue, sum(packetBytes)"
scalar StaticHierarchical.host[28].wlan[0].mac 	"number of received packets" 	4583
scalar StaticHierarchical.host[28].wlan[0].mac 	"number of collisions" 	2835
scalar StaticHierarchical.host[28].wlan[0].mac 	"number of internal collisions" 	0
scalar StaticHierarchical.host[28].wlan[0].mac 	"number of retry for AC 0" 	211
scalar StaticHierarchical.host[28].wlan[0].mac 	"sent and received bits" 	6995680
scalar StaticHierarchical.host[28].wlan[0].mac 	"sent packet within AC 0" 	4609
scalar StaticHierarchical.host[28].wlan[0].mac 	"sent in TXOP " 	0
scalar StaticHierarchical.host[28].wlan[0].mac 	"sentWithoutRetry AC 0" 	4535
scalar StaticHierarchical.host[28].wlan[0].mac 	"numGivenUp AC 0" 	0
scalar StaticHierarchical.host[28].wlan[0].mac 	"numDropped AC 0" 	0
scalar StaticHierarchical.host[28].wlan[0].mac 	rcvdPkFromHL:count 	4610
attr interpolationmode  none
attr source  packetReceivedFromUpper
attr title  "packets received from higher layer, count"
scalar StaticHierarchical.host[28].wlan[0].mac 	rcvdPkFromHL:sum(packetBytes) 	874460
attr interpolationmode  none
attr source  packetReceivedFromUpper
attr title  "packets received from higher layer, sum(packetBytes)"
scalar StaticHierarchical.host[28].wlan[0].mac 	passedUpPk:count 	4646
attr interpolationmode  none
attr source  packetSentToUpper
attr title  "packets passed to higher layer, count"
scalar StaticHierarchical.host[28].wlan[0].mac 	passedUpPk:sum(packetBytes) 	875060
attr interpolationmode  none
attr source  packetSentToUpper
attr title  "packets passed to higher layer, sum(packetBytes)"
scalar StaticHierarchical.host[28].wlan[0].mac 	rcvdPkFromLL:count 	167601
attr interpolationmode  none
attr source  packetReceivedFromLower
attr title  "packets received from lower layer, count"
scalar StaticHierarchical.host[28].wlan[0].mac 	rcvdPkFromLL:sum(packetBytes) 	17292886
attr interpolationmode  none
attr source  packetReceivedFromLower
attr title  "packets received from lower layer, sum(packetBytes)"
scalar StaticHierarchical.host[28].wlan[0].mac 	sentDownPk:count 	9404
attr interpolationmode  none
attr source  packetSentToLower
attr title  "packets sent to lower layer, count"
scalar StaticHierarchical.host[28].wlan[0].mac 	sentDownPk:sum(packetBytes) 	978592
attr interpolationmode  none
attr source  packetSentToLower
attr title  "packets sent to lower layer, sum(packetBytes)"
scalar StaticHierarchical.host[28].wlan[0].radio 	lossRate:min 	0
attr interpolationmode  backward-sample-hold
attr title  "packet loss rate, min"
scalar StaticHierarchical.host[28].wlan[0].radio 	lossRate:max 	0.26
attr interpolationmode  backward-sample-hold
attr title  "packet loss rate, max"
scalar StaticHierarchical.host[28].wlan[0].radio 	lossRate:timeavg 	0.01699833591504
attr interpolationmode  backward-sample-hold
attr title  "packet loss rate, timeavg"
statistic StaticHierarchical.host[28].wlan[0].radio 	channelNo:histogram
field count 1
field mean 2
field stddev -nan
field sum 2
field sqrsum 4
field min 2
field max 2
attr interpolationmode  sample-hold
attr title  "channel no, histogram"
bin	-INF	0
bin	1	0
bin	2	1
bin	3	0
scalar StaticHierarchical.host[28].wlan[0].radio 	bitrate:min 	11000000
attr interpolationmode  sample-hold
attr title  "tx bitrate, min"
attr unit  bps
scalar StaticHierarchical.host[28].wlan[0].radio 	bitrate:max 	11000000
attr interpolationmode  sample-hold
attr title  "tx bitrate, max"
attr unit  bps
scalar StaticHierarchical.host[28].wlan[0].radio 	bitrate:timeavg 	11000000
attr interpolationmode  sample-hold
attr title  "tx bitrate, timeavg"
attr unit  bps
scalar StaticHierarchical.host[28].wlan[0].radio 	radioState:count 	353380
attr interpolationmode  sample-hold
attr title  "radio state (enum), count"
scalar StaticHierarchical.host[28].pingApp[0] 	numOutOfOrderArrivals:last 	-nan
attr interpolationmode  none
attr title  "ping out-of-order arrivals, last"
scalar StaticHierarchical.host[28].pingApp[0] 	pingRxSeq:count 	0
attr interpolationmode  none
attr title  "ping rx seq, count"
scalar StaticHierarchical.host[28].pingApp[0] 	pingTxSeq:count 	0
attr interpolationmode  none
attr title  "ping tx seq, count"
scalar StaticHierarchical.host[28].pingApp[0] 	numLost:last 	-nan
attr interpolationmode  none
attr title  "pings lost, last"
statistic StaticHierarchical.host[28].pingApp[0] 	rtt:histogram
field count 0
field mean -nan
field stddev -nan
field sum 0
field sqrsum 0
field min -nan
field max -nan
attr interpolationmode  none
attr title  "ping round-trip time, histogram"
attr unit  s
bin	-INF	0
bin	-0.5	0
bin	-0.46666666666667	0
bin	-0.43333333333333	0
bin	-0.4	0
bin	-0.36666666666667	0
bin	-0.33333333333333	0
bin	-0.3	0
bin	-0.26666666666667	0
bin	-0.23333333333333	0
bin	-0.2	0
bin	-0.16666666666667	0
bin	-0.13333333333333	0
bin	-0.1	0
bin	-0.066666666666667	0
bin	-0.033333333333333	0
bin	0	0
bin	0.033333333333333	0
bin	0.066666666666667	0
bin	0.1	0
bin	0.13333333333333	0
bin	0.16666666666667	0
bin	0.2	0
bin	0.23333333333333	0
bin	0.26666666666667	0
bin	0.3	0
bin	0.33333333333333	0
bin	0.36666666666667	0
bin	0.4	0
bin	0.43333333333333	0
bin	0.46666666666667	0
bin	0.5	0
scalar StaticHierarchical.host[28].pingTestApp[0] 	"Pings sent" 	2299
scalar StaticHierarchical.host[28].pingTestApp[0] 	"ping loss rate (%)" 	0.69595476294041
scalar StaticHierarchical.host[28].pingTestApp[0] 	"ping out-of-order rate (%)" 	0
scalar StaticHierarchical.host[28].pingTestApp[0] 	numOutOfOrderArrivals:last 	-nan
attr interpolationmode  none
attr title  "ping out-of-order arrivals, last"
scalar StaticHierarchical.host[28].pingTestApp[0] 	pingRxSeq:count 	2283
attr interpolationmode  none
attr title  "ping rx seq, count"
scalar StaticHierarchical.host[28].pingTestApp[0] 	pingTxSeq:count 	2299
attr interpolationmode  none
attr title  "ping tx seq, count"
scalar StaticHierarchical.host[28].pingTestApp[0] 	numLost:last 	16
attr interpolationmode  none
attr title  "pings lost, last"
statistic StaticHierarchical.host[28].pingTestApp[0] 	rtt:histogram
field count 2283
field mean 0.007994372367499
field stddev 0.04900546382714
field sum 18.251152115
field sqrsum 5.6262104827149
field min 0.003962631
field max 1.87013423
attr interpolationmode  none
attr title  "ping round-trip time, histogram"
attr unit  s
bin	-INF	0
bin	-0.005121217	0
bin	-0.0039057528666667	0
bin	-0.0026902887333333	0
bin	-0.0014748246	0
bin	-0.00025936046666667	0
bin	0.00095610366666667	0
bin	0.0021715678	0
bin	0.0033870319333333	1279
bin	0.0046024960666667	292
bin	0.0058179602	155
bin	0.0070334243333333	112
bin	0.0082488884666667	96
bin	0.0094643526	63
bin	0.010679816733333	67
bin	0.011895280866667	44
bin	0.013110745	42
bin	0.014326209133333	27
bin	0.015541673266667	24
bin	0.0167571374	15
bin	0.017972601533333	9
bin	0.019188065666667	14
bin	0.0204035298	5
bin	0.021618993933333	6
bin	0.022834458066667	8
bin	0.0240499222	9
bin	0.025265386333333	2
bin	0.026480850466667	3
bin	0.0276963146	3
bin	0.028911778733333	1
bin	0.030127242866667	1
bin	0.031342707	6
scalar StaticHierarchical.host[29].networkLayer.arp 	failedARPResolution:count 	0
attr title  "ARP failed resolutions, count"
scalar StaticHierarchical.host[29].networkLayer.arp 	completedARPResolution:count 	43
attr title  "ARP completed resolutions, count"
scalar StaticHierarchical.host[29].networkLayer.arp 	initiatedARPResolution:count 	1
attr title  "ARP initiated resolutions, count"
scalar StaticHierarchical.host[29].networkLayer.arp 	sentReply:count 	11
attr title  "ARP replies sent, count"
scalar StaticHierarchical.host[29].networkLayer.arp 	sentReq:count 	1
attr title  "ARP request sent, count"
scalar StaticHierarchical.host[29].lo0.lo 	droppedPkBitError:count 	0
attr interpolationmode  none
attr source  dropPkBitError
attr title  "packets dropped/bit error, count"
scalar StaticHierarchical.host[29].lo0.lo 	droppedPkBitError:sum(packetBytes) 	0
attr interpolationmode  none
attr source  dropPkBitError
attr title  "packets dropped/bit error, sum(packetBytes)"
scalar StaticHierarchical.host[29].lo0.lo 	rcvdPkFromHL:count 	0
attr interpolationmode  none
attr source  packetReceivedFromUpper
attr title  "packets received from higher layer, count"
scalar StaticHierarchical.host[29].lo0.lo 	rcvdPkFromHL:sum(packetBytes) 	0
attr interpolationmode  none
attr source  packetReceivedFromUpper
attr title  "packets received from higher layer, sum(packetBytes)"
scalar StaticHierarchical.host[29].lo0.lo 	passedUpPk:count 	0
attr interpolationmode  none
attr source  packetSentToUpper
attr title  "packets passed to higher layer, count"
scalar StaticHierarchical.host[29].lo0.lo 	passedUpPk:sum(packetBytes) 	0
attr interpolationmode  none
attr source  packetSentToUpper
attr title  "packets passed to higher layer, sum(packetBytes)"
scalar StaticHierarchical.host[29].wlan[0].mgmt 	dataQueueLen:max 	0
attr interpolationmode  sample-hold
attr title  "data queue length, max"
scalar StaticHierarchical.host[29].wlan[0].mgmt 	dataQueueLen:timeavg 	0
attr interpolationmode  sample-hold
attr title  "data queue length, timeavg"
scalar StaticHierarchical.host[29].wlan[0].mgmt 	dropPkByQueue:count 	0
attr interpolationmode  none
attr source  dropPkByQueue
attr title  "packets dropped by queue, count"
scalar StaticHierarchical.host[29].wlan[0].mgmt 	dropPkByQueue:sum(packetBytes) 	0
attr interpolationmode  none
attr source  dropPkByQueue
attr title  "packets dropped by queue, sum(packetBytes)"
scalar StaticHierarchical.host[29].wlan[0].mac 	"number of received packets" 	4594
scalar StaticHierarchical.host[29].wlan[0].mac 	"number of collisions" 	1405
scalar StaticHierarchical.host[29].wlan[0].mac 	"number of internal collisions" 	0
scalar StaticHierarchical.host[29].wlan[0].mac 	"number of retry for AC 0" 	560
scalar StaticHierarchical.host[29].wlan[0].mac 	"sent and received bits" 	6997200
scalar StaticHierarchical.host[29].wlan[0].mac 	"sent packet within AC 0" 	4610
scalar StaticHierarchical.host[29].wlan[0].mac 	"sent in TXOP " 	0
scalar StaticHierarchical.host[29].wlan[0].mac 	"sentWithoutRetry AC 0" 	4380
scalar StaticHierarchical.host[29].wlan[0].mac 	"numGivenUp AC 0" 	0
scalar StaticHierarchical.host[29].wlan[0].mac 	"numDropped AC 0" 	0
scalar StaticHierarchical.host[29].wlan[0].mac 	rcvdPkFromHL:count 	4611
attr interpolationmode  none
attr source  packetReceivedFromUpper
attr title  "packets received from higher layer, count"
scalar StaticHierarchical.host[29].wlan[0].mac 	rcvdPkFromHL:sum(packetBytes) 	874650
attr interpolationmode  none
attr source  packetReceivedFromUpper
attr title  "packets received from higher layer, sum(packetBytes)"
scalar StaticHierarchical.host[29].wlan[0].mac 	passedUpPk:count 	4629
attr interpolationmode  none
attr source  packetSentToUpper
attr title  "packets passed to higher layer, count"
scalar StaticHierarchical.host[29].wlan[0].mac 	passedUpPk:sum(packetBytes) 	873750
attr interpolationmode  none
attr source  packetSentToUpper
attr title  "packets passed to higher layer, sum(packetBytes)"
scalar StaticHierarchical.host[29].wlan[0].mac 	rcvdPkFromLL:count 	116888
attr interpolationmode  none
attr source  packetReceivedFromLower
attr title  "packets received from lower layer, count"
scalar StaticHierarchical.host[29].wlan[0].mac 	rcvdPkFromLL:sum(packetBytes) 	12089880
attr interpolationmode  none
attr source  packetReceivedFromLower
attr title  "packets received from lower layer, sum(packetBytes)"
scalar StaticHierarchical.host[29].wlan[0].mac 	sentDownPk:count 	9765
attr interpolationmode  none
attr source  packetSentToLower
attr title  "packets sent to lower layer, count"
scalar StaticHierarchical.host[29].wlan[0].mac 	sentDownPk:sum(packetBytes) 	1045126
attr interpolationmode  none
attr source  packetSentToLower
attr title  "packets sent to lower layer, sum(packetBytes)"
scalar StaticHierarchical.host[29].wlan[0].radio 	lossRate:min 	0
attr interpolationmode  backward-sample-hold
attr title  "packet loss rate, min"
scalar StaticHierarchical.host[29].wlan[0].radio 	lossRate:max 	0.18
attr interpolationmode  backward-sample-hold
attr title  "packet loss rate, max"
scalar StaticHierarchical.host[29].wlan[0].radio 	lossRate:timeavg 	0.012012545542207
attr interpolationmode  backward-sample-hold
attr title  "packet loss rate, timeavg"
statistic StaticHierarchical.host[29].wlan[0].radio 	channelNo:histogram
field count 1
field mean 2
field stddev -nan
field sum 2
field sqrsum 4
field min 2
field max 2
attr interpolationmode  sample-hold
attr title  "channel no, histogram"
bin	-INF	0
bin	1	0
bin	2	1
bin	3	0
scalar StaticHierarchical.host[29].wlan[0].radio 	bitrate:min 	11000000
attr interpolationmode  sample-hold
attr title  "tx bitrate, min"
attr unit  bps
scalar StaticHierarchical.host[29].wlan[0].radio 	bitrate:max 	11000000
attr interpolationmode  sample-hold
attr title  "tx bitrate, max"
attr unit  bps
scalar StaticHierarchical.host[29].wlan[0].radio 	bitrate:timeavg 	11000000
attr interpolationmode  sample-hold
attr title  "tx bitrate, timeavg"
attr unit  bps
scalar StaticHierarchical.host[29].wlan[0].radio 	radioState:count 	253765
attr interpolationmode  sample-hold
attr title  "radio state (enum), count"
scalar StaticHierarchical.host[29].pingApp[0] 	numOutOfOrderArrivals:last 	-nan
attr interpolationmode  none
attr title  "ping out-of-order arrivals, last"
scalar StaticHierarchical.host[29].pingApp[0] 	pingRxSeq:count 	0
attr interpolationmode  none
attr title  "ping rx seq, count"
scalar StaticHierarchical.host[29].pingApp[0] 	pingTxSeq:count 	0
attr interpolationmode  none
attr title  "ping tx seq, count"
scalar StaticHierarchical.host[29].pingApp[0] 	numLost:last 	-nan
attr interpolationmode  none
attr title  "pings lost, last"
statistic StaticHierarchical.host[29].pingApp[0] 	rtt:histogram
field count 0
field mean -nan
field stddev -nan
field sum 0
field sqrsum 0
field min -nan
field max -nan
attr interpolationmode  none
attr title  "ping round-trip time, histogram"
attr unit  s
bin	-INF	0
bin	-0.5	0
bin	-0.46666666666667	0
bin	-0.43333333333333	0
bin	-0.4	0
bin	-0.36666666666667	0
bin	-0.33333333333333	0
bin	-0.3	0
bin	-0.26666666666667	0
bin	-0.23333333333333	0
bin	-0.2	0
bin	-0.16666666666667	0
bin	-0.13333333333333	0
bin	-0.1	0
bin	-0.066666666666667	0
bin	-0.033333333333333	0
bin	0	0
bin	0.033333333333333	0
bin	0.066666666666667	0
bin	0.1	0
bin	0.13333333333333	0
bin	0.16666666666667	0
bin	0.2	0
bin	0.23333333333333	0
bin	0.26666666666667	0
bin	0.3	0
bin	0.33333333333333	0
bin	0.36666666666667	0
bin	0.4	0
bin	0.43333333333333	0
bin	0.46666666666667	0
bin	0.5	0
scalar StaticHierarchical.host[29].pingTestApp[0] 	"Pings sent" 	2298
scalar StaticHierarchical.host[29].pingTestApp[0] 	"ping loss rate (%)" 	0.78328981723238
scalar StaticHierarchical.host[29].pingTestApp[0] 	"ping out-of-order rate (%)" 	0
scalar StaticHierarchical.host[29].pingTestApp[0] 	numOutOfOrderArrivals:last 	-nan
attr interpolationmode  none
attr title  "ping out-of-order arrivals, last"
scalar StaticHierarchical.host[29].pingTestApp[0] 	pingRxSeq:count 	2280
attr interpolationmode  none
attr title  "ping rx seq, count"
scalar StaticHierarchical.host[29].pingTestApp[0] 	pingTxSeq:count 	2298
attr interpolationmode  none
attr title  "ping tx seq, count"
scalar StaticHierarchical.host[29].pingTestApp[0] 	numLost:last 	18
attr interpolationmode  none
attr title  "pings lost, last"
statistic StaticHierarchical.host[29].pingTestApp[0] 	rtt:histogram
field count 2280
field mean 0.0082458401162281
field stddev 0.050328426113503
field sum 18.800515465
field sqrsum 5.9276201772942
field min 0.003960542
field max 1.879310789
attr interpolationmode  none
attr title  "ping round-trip time, histogram"
attr unit  s
bin	-INF	0
bin	-0.006099102	0
bin	-0.0047532516	0
bin	-0.0034074012	0
bin	-0.0020615508	0
bin	-0.0007157004	0
bin	0.00063015	0
bin	0.0019760004	0
bin	0.0033218508	1266
bin	0.0046677012	306
bin	0.0060135516	163
bin	0.007359402	140
bin	0.0087052524	104
bin	0.0100511028	82
bin	0.0113969532	43
bin	0.0127428036	37
bin	0.014088654	26
bin	0.0154345044	27
bin	0.0167803548	21
bin	0.0181262052	17
bin	0.0194720556	9
bin	0.020817906	8
bin	0.0221637564	7
bin	0.0235096068	8
bin	0.0248554572	6
bin	0.0262013076	3
bin	0.027547158	1
bin	0.0288930084	0
bin	0.0302388588	0
bin	0.0315847092	1
bin	0.0329305596	0
bin	0.03427641	5
scalar StaticHierarchical.globalObserver.globalStatistics 	"GlobalStatistics: Simulation Time" 	900
scalar StaticHierarchical.globalObserver.globalStatistics 	"Vector: GlobalDhtTestMap: Number of stored DHT entries.mean" 	0
scalar StaticHierarchical.globalObserver.globalStatistics 	"Vector: GlobalNodeList: Number of nodes.mean" 	0
