version 2
run TwoClustersStatic-0-20190410-17:30:01-2184
attr configname TwoClustersStatic
attr datetime 20190410-17:30:01
attr experiment TwoClustersStatic
attr inifile DHT-basedStatic.ini
attr iterationvars ""
attr iterationvars2 $repetition=0
attr measurement ""
attr network p2psipmanet.simulations.RyanStatic.StaticHierarchical
attr processid 2184
attr repetition 0
attr replication #0
attr resultdir results
attr runnumber 0
attr seedset 277735

scalar StaticHierarchical.gw[0].networkLayer.arp 	failedARPResolution:count 	0
attr title  "ARP failed resolutions, count"
scalar StaticHierarchical.gw[0].networkLayer.arp 	completedARPResolution:count 	71
attr title  "ARP completed resolutions, count"
scalar StaticHierarchical.gw[0].networkLayer.arp 	initiatedARPResolution:count 	34
attr title  "ARP initiated resolutions, count"
scalar StaticHierarchical.gw[0].networkLayer.arp 	sentReply:count 	12
attr title  "ARP replies sent, count"
scalar StaticHierarchical.gw[0].networkLayer.arp 	sentReq:count 	34
attr title  "ARP request sent, count"
scalar StaticHierarchical.gw[0].lo0.lo 	droppedPkBitError:count 	0
attr interpolationmode  none
attr source  dropPkBitError
attr title  "packets dropped/bit error, count"
scalar StaticHierarchical.gw[0].lo0.lo 	droppedPkBitError:sum(packetBytes) 	0
attr interpolationmode  none
attr source  dropPkBitError
attr title  "packets dropped/bit error, sum(packetBytes)"
scalar StaticHierarchical.gw[0].lo0.lo 	rcvdPkFromHL:count 	0
attr interpolationmode  none
attr source  packetReceivedFromUpper
attr title  "packets received from higher layer, count"
scalar StaticHierarchical.gw[0].lo0.lo 	rcvdPkFromHL:sum(packetBytes) 	0
attr interpolationmode  none
attr source  packetReceivedFromUpper
attr title  "packets received from higher layer, sum(packetBytes)"
scalar StaticHierarchical.gw[0].lo0.lo 	passedUpPk:count 	0
attr interpolationmode  none
attr source  packetSentToUpper
attr title  "packets passed to higher layer, count"
scalar StaticHierarchical.gw[0].lo0.lo 	passedUpPk:sum(packetBytes) 	0
attr interpolationmode  none
attr source  packetSentToUpper
attr title  "packets passed to higher layer, sum(packetBytes)"
scalar StaticHierarchical.gw[0].wlan[0].mgmt 	dataQueueLen:max 	4
attr interpolationmode  sample-hold
attr title  "data queue length, max"
scalar StaticHierarchical.gw[0].wlan[0].mgmt 	dataQueueLen:timeavg 	5.2453014444444e-05
attr interpolationmode  sample-hold
attr title  "data queue length, timeavg"
scalar StaticHierarchical.gw[0].wlan[0].mgmt 	dropPkByQueue:count 	0
attr interpolationmode  none
attr source  dropPkByQueue
attr title  "packets dropped by queue, count"
scalar StaticHierarchical.gw[0].wlan[0].mgmt 	dropPkByQueue:sum(packetBytes) 	0
attr interpolationmode  none
attr source  dropPkByQueue
attr title  "packets dropped by queue, sum(packetBytes)"
scalar StaticHierarchical.gw[0].wlan[0].mac 	"number of received packets" 	36839
scalar StaticHierarchical.gw[0].wlan[0].mac 	"number of collisions" 	3401
scalar StaticHierarchical.gw[0].wlan[0].mac 	"number of internal collisions" 	0
scalar StaticHierarchical.gw[0].wlan[0].mac 	"number of retry for AC 0" 	527
scalar StaticHierarchical.gw[0].wlan[0].mac 	"sent and received bits" 	55901280
scalar StaticHierarchical.gw[0].wlan[0].mac 	"sent packet within AC 0" 	36770
scalar StaticHierarchical.gw[0].wlan[0].mac 	"sent in TXOP " 	0
scalar StaticHierarchical.gw[0].wlan[0].mac 	"sentWithoutRetry AC 0" 	36433
scalar StaticHierarchical.gw[0].wlan[0].mac 	"numGivenUp AC 0" 	0
scalar StaticHierarchical.gw[0].wlan[0].mac 	"numDropped AC 0" 	0
scalar StaticHierarchical.gw[0].wlan[0].mac 	rcvdPkFromHL:count 	36798
attr interpolationmode  none
attr source  packetReceivedFromUpper
attr title  "packets received from higher layer, count"
scalar StaticHierarchical.gw[0].wlan[0].mac 	rcvdPkFromHL:sum(packetBytes) 	6987660
attr interpolationmode  none
attr source  packetReceivedFromUpper
attr title  "packets received from higher layer, sum(packetBytes)"
scalar StaticHierarchical.gw[0].wlan[0].mac 	passedUpPk:count 	36852
attr interpolationmode  none
attr source  packetSentToUpper
attr title  "packets passed to higher layer, count"
scalar StaticHierarchical.gw[0].wlan[0].mac 	passedUpPk:sum(packetBytes) 	6994320
attr interpolationmode  none
attr source  packetSentToUpper
attr title  "packets passed to higher layer, sum(packetBytes)"
scalar StaticHierarchical.gw[0].wlan[0].mac 	rcvdPkFromLL:count 	140804
attr interpolationmode  none
attr source  packetReceivedFromLower
attr title  "packets received from lower layer, count"
scalar StaticHierarchical.gw[0].wlan[0].mac 	rcvdPkFromLL:sum(packetBytes) 	14579232
attr interpolationmode  none
attr source  packetReceivedFromLower
attr title  "packets received from lower layer, sum(packetBytes)"
scalar StaticHierarchical.gw[0].wlan[0].mac 	sentDownPk:count 	74164
attr interpolationmode  none
attr source  packetSentToLower
attr title  "packets sent to lower layer, count"
scalar StaticHierarchical.gw[0].wlan[0].mac 	sentDownPk:sum(packetBytes) 	7603536
attr interpolationmode  none
attr source  packetSentToLower
attr title  "packets sent to lower layer, sum(packetBytes)"
scalar StaticHierarchical.gw[0].wlan[0].radio 	lossRate:min 	0
attr interpolationmode  backward-sample-hold
attr title  "packet loss rate, min"
scalar StaticHierarchical.gw[0].wlan[0].radio 	lossRate:max 	0.32
attr interpolationmode  backward-sample-hold
attr title  "packet loss rate, max"
scalar StaticHierarchical.gw[0].wlan[0].radio 	lossRate:timeavg 	0.02486390447128
attr interpolationmode  backward-sample-hold
attr title  "packet loss rate, timeavg"
statistic StaticHierarchical.gw[0].wlan[0].radio 	channelNo:histogram
field count 1
field mean 0
field stddev -nan
field sum 0
field sqrsum 0
field min 0
field max 0
attr interpolationmode  sample-hold
attr title  "channel no, histogram"
bin	-INF	0
bin	-0.5	0
bin	-0.46666666666667	0
bin	-0.43333333333333	0
bin	-0.4	0
bin	-0.36666666666667	0
bin	-0.33333333333333	0
bin	-0.3	0
bin	-0.26666666666667	0
bin	-0.23333333333333	0
bin	-0.2	0
bin	-0.16666666666667	0
bin	-0.13333333333333	0
bin	-0.1	0
bin	-0.066666666666667	0
bin	-0.033333333333333	0
bin	0	1
bin	0.033333333333333	0
bin	0.066666666666667	0
bin	0.1	0
bin	0.13333333333333	0
bin	0.16666666666667	0
bin	0.2	0
bin	0.23333333333333	0
bin	0.26666666666667	0
bin	0.3	0
bin	0.33333333333333	0
bin	0.36666666666667	0
bin	0.4	0
bin	0.43333333333333	0
bin	0.46666666666667	0
bin	0.5	0
scalar StaticHierarchical.gw[0].wlan[0].radio 	bitrate:min 	11000000
attr interpolationmode  sample-hold
attr title  "tx bitrate, min"
attr unit  bps
scalar StaticHierarchical.gw[0].wlan[0].radio 	bitrate:max 	11000000
attr interpolationmode  sample-hold
attr title  "tx bitrate, max"
attr unit  bps
scalar StaticHierarchical.gw[0].wlan[0].radio 	bitrate:timeavg 	11000000
attr interpolationmode  sample-hold
attr title  "tx bitrate, timeavg"
attr unit  bps
scalar StaticHierarchical.gw[0].wlan[0].radio 	radioState:count 	429529
attr interpolationmode  sample-hold
attr title  "radio state (enum), count"
scalar StaticHierarchical.gw[0].wlan[1].mgmt 	dataQueueLen:max 	2
attr interpolationmode  sample-hold
attr title  "data queue length, max"
scalar StaticHierarchical.gw[0].wlan[1].mgmt 	dataQueueLen:timeavg 	0.00021659783777778
attr interpolationmode  sample-hold
attr title  "data queue length, timeavg"
scalar StaticHierarchical.gw[0].wlan[1].mgmt 	dropPkByQueue:count 	0
attr interpolationmode  none
attr source  dropPkByQueue
attr title  "packets dropped by queue, count"
scalar StaticHierarchical.gw[0].wlan[1].mgmt 	dropPkByQueue:sum(packetBytes) 	0
attr interpolationmode  none
attr source  dropPkByQueue
attr title  "packets dropped by queue, sum(packetBytes)"
scalar StaticHierarchical.gw[0].wlan[1].mac 	"number of received packets" 	22984
scalar StaticHierarchical.gw[0].wlan[1].mac 	"number of collisions" 	276
scalar StaticHierarchical.gw[0].wlan[1].mac 	"number of internal collisions" 	0
scalar StaticHierarchical.gw[0].wlan[1].mac 	"number of retry for AC 0" 	9044
scalar StaticHierarchical.gw[0].wlan[1].mac 	"sent and received bits" 	34948480
scalar StaticHierarchical.gw[0].wlan[1].mac 	"sent packet within AC 0" 	22994
scalar StaticHierarchical.gw[0].wlan[1].mac 	"sent in TXOP " 	0
scalar StaticHierarchical.gw[0].wlan[1].mac 	"sentWithoutRetry AC 0" 	19475
scalar StaticHierarchical.gw[0].wlan[1].mac 	"numGivenUp AC 0" 	2
scalar StaticHierarchical.gw[0].wlan[1].mac 	"numDropped AC 0" 	0
scalar StaticHierarchical.gw[0].wlan[1].mac 	rcvdPkFromHL:count 	23002
attr interpolationmode  none
attr source  packetReceivedFromUpper
attr title  "packets received from higher layer, count"
scalar StaticHierarchical.gw[0].wlan[1].mac 	rcvdPkFromHL:sum(packetBytes) 	4368820
attr interpolationmode  none
attr source  packetReceivedFromUpper
attr title  "packets received from higher layer, sum(packetBytes)"
scalar StaticHierarchical.gw[0].wlan[1].mac 	passedUpPk:count 	22984
attr interpolationmode  none
attr source  packetSentToUpper
attr title  "packets passed to higher layer, count"
scalar StaticHierarchical.gw[0].wlan[1].mac 	passedUpPk:sum(packetBytes) 	4364680
attr interpolationmode  none
attr source  packetSentToUpper
attr title  "packets passed to higher layer, sum(packetBytes)"
scalar StaticHierarchical.gw[0].wlan[1].mac 	rcvdPkFromLL:count 	96492
attr interpolationmode  none
attr source  packetReceivedFromLower
attr title  "packets received from lower layer, count"
scalar StaticHierarchical.gw[0].wlan[1].mac 	rcvdPkFromLL:sum(packetBytes) 	10234008
attr interpolationmode  none
attr source  packetReceivedFromLower
attr title  "packets received from lower layer, sum(packetBytes)"
scalar StaticHierarchical.gw[0].wlan[1].mac 	sentDownPk:count 	55030
attr interpolationmode  none
attr source  packetSentToLower
attr title  "packets sent to lower layer, count"
scalar StaticHierarchical.gw[0].wlan[1].mac 	sentDownPk:sum(packetBytes) 	6408236
attr interpolationmode  none
attr source  packetSentToLower
attr title  "packets sent to lower layer, sum(packetBytes)"
scalar StaticHierarchical.gw[0].wlan[1].radio 	lossRate:min 	0
attr interpolationmode  backward-sample-hold
attr title  "packet loss rate, min"
scalar StaticHierarchical.gw[0].wlan[1].radio 	lossRate:max 	0.08
attr interpolationmode  backward-sample-hold
attr title  "packet loss rate, max"
scalar StaticHierarchical.gw[0].wlan[1].radio 	lossRate:timeavg 	0.0028825249660022
attr interpolationmode  backward-sample-hold
attr title  "packet loss rate, timeavg"
statistic StaticHierarchical.gw[0].wlan[1].radio 	channelNo:histogram
field count 1
field mean 5
field stddev -nan
field sum 5
field sqrsum 25
field min 5
field max 5
attr interpolationmode  sample-hold
attr title  "channel no, histogram"
bin	-INF	0
bin	4	0
bin	5	1
bin	6	0
scalar StaticHierarchical.gw[0].wlan[1].radio 	bitrate:min 	11000000
attr interpolationmode  sample-hold
attr title  "tx bitrate, min"
attr unit  bps
scalar StaticHierarchical.gw[0].wlan[1].radio 	bitrate:max 	11000000
attr interpolationmode  sample-hold
attr title  "tx bitrate, max"
attr unit  bps
scalar StaticHierarchical.gw[0].wlan[1].radio 	bitrate:timeavg 	11000000
attr interpolationmode  sample-hold
attr title  "tx bitrate, timeavg"
attr unit  bps
scalar StaticHierarchical.gw[0].wlan[1].radio 	radioState:count 	303113
attr interpolationmode  sample-hold
attr title  "radio state (enum), count"
scalar StaticHierarchical.gw[0].udp 	droppedPkBadChecksum:count 	0
attr interpolationmode  none
attr title  "packets dropped (checksum error), count"
scalar StaticHierarchical.gw[0].udp 	droppedPkWrongPort:count 	0
attr interpolationmode  none
attr title  "packets dropped (wrong port), count"
scalar StaticHierarchical.gw[0].udp 	passedUpPk:count 	0
attr interpolationmode  none
attr title  "packets passed up, count"
scalar StaticHierarchical.gw[0].udp 	rcvdPk:count 	0
attr interpolationmode  none
attr source  rcvdPk
attr title  "packets received, count"
scalar StaticHierarchical.gw[0].udp 	rcvdPk:sum(packetBytes) 	0
attr interpolationmode  none
attr source  rcvdPk
attr title  "packets received, sum(packetBytes)"
scalar StaticHierarchical.gw[0].udp 	sentPk:count 	0
attr interpolationmode  none
attr source  sentPk
attr title  "packets sent, count"
scalar StaticHierarchical.gw[0].udp 	sentPk:sum(packetBytes) 	0
attr interpolationmode  none
attr source  sentPk
attr title  "packets sent, sum(packetBytes)"
scalar StaticHierarchical.gw[0].pingApp[0] 	numOutOfOrderArrivals:last 	-nan
attr interpolationmode  none
attr title  "ping out-of-order arrivals, last"
scalar StaticHierarchical.gw[0].pingApp[0] 	pingRxSeq:count 	0
attr interpolationmode  none
attr title  "ping rx seq, count"
scalar StaticHierarchical.gw[0].pingApp[0] 	pingTxSeq:count 	0
attr interpolationmode  none
attr title  "ping tx seq, count"
scalar StaticHierarchical.gw[0].pingApp[0] 	numLost:last 	-nan
attr interpolationmode  none
attr title  "pings lost, last"
statistic StaticHierarchical.gw[0].pingApp[0] 	rtt:histogram
field count 0
field mean -nan
field stddev -nan
field sum 0
field sqrsum 0
field min -nan
field max -nan
attr interpolationmode  none
attr title  "ping round-trip time, histogram"
attr unit  s
bin	-INF	0
bin	-0.5	0
bin	-0.46666666666667	0
bin	-0.43333333333333	0
bin	-0.4	0
bin	-0.36666666666667	0
bin	-0.33333333333333	0
bin	-0.3	0
bin	-0.26666666666667	0
bin	-0.23333333333333	0
bin	-0.2	0
bin	-0.16666666666667	0
bin	-0.13333333333333	0
bin	-0.1	0
bin	-0.066666666666667	0
bin	-0.033333333333333	0
bin	0	0
bin	0.033333333333333	0
bin	0.066666666666667	0
bin	0.1	0
bin	0.13333333333333	0
bin	0.16666666666667	0
bin	0.2	0
bin	0.23333333333333	0
bin	0.26666666666667	0
bin	0.3	0
bin	0.33333333333333	0
bin	0.36666666666667	0
bin	0.4	0
bin	0.43333333333333	0
bin	0.46666666666667	0
bin	0.5	0
scalar StaticHierarchical.gw[0].pingTestApp[0] 	numOutOfOrderArrivals:last 	-nan
attr interpolationmode  none
attr title  "ping out-of-order arrivals, last"
scalar StaticHierarchical.gw[0].pingTestApp[0] 	pingRxSeq:count 	0
attr interpolationmode  none
attr title  "ping rx seq, count"
scalar StaticHierarchical.gw[0].pingTestApp[0] 	pingTxSeq:count 	0
attr interpolationmode  none
attr title  "ping tx seq, count"
scalar StaticHierarchical.gw[0].pingTestApp[0] 	numLost:last 	-nan
attr interpolationmode  none
attr title  "pings lost, last"
statistic StaticHierarchical.gw[0].pingTestApp[0] 	rtt:histogram
field count 0
field mean -nan
field stddev -nan
field sum 0
field sqrsum 0
field min -nan
field max -nan
attr interpolationmode  none
attr title  "ping round-trip time, histogram"
attr unit  s
bin	-INF	0
bin	-0.5	0
bin	-0.46666666666667	0
bin	-0.43333333333333	0
bin	-0.4	0
bin	-0.36666666666667	0
bin	-0.33333333333333	0
bin	-0.3	0
bin	-0.26666666666667	0
bin	-0.23333333333333	0
bin	-0.2	0
bin	-0.16666666666667	0
bin	-0.13333333333333	0
bin	-0.1	0
bin	-0.066666666666667	0
bin	-0.033333333333333	0
bin	0	0
bin	0.033333333333333	0
bin	0.066666666666667	0
bin	0.1	0
bin	0.13333333333333	0
bin	0.16666666666667	0
bin	0.2	0
bin	0.23333333333333	0
bin	0.26666666666667	0
bin	0.3	0
bin	0.33333333333333	0
bin	0.36666666666667	0
bin	0.4	0
bin	0.43333333333333	0
bin	0.46666666666667	0
bin	0.5	0
scalar StaticHierarchical.gw[1].networkLayer.arp 	failedARPResolution:count 	0
attr title  "ARP failed resolutions, count"
scalar StaticHierarchical.gw[1].networkLayer.arp 	completedARPResolution:count 	29
attr title  "ARP completed resolutions, count"
scalar StaticHierarchical.gw[1].networkLayer.arp 	initiatedARPResolution:count 	12
attr title  "ARP initiated resolutions, count"
scalar StaticHierarchical.gw[1].networkLayer.arp 	sentReply:count 	12
attr title  "ARP replies sent, count"
scalar StaticHierarchical.gw[1].networkLayer.arp 	sentReq:count 	13
attr title  "ARP request sent, count"
scalar StaticHierarchical.gw[1].lo0.lo 	droppedPkBitError:count 	0
attr interpolationmode  none
attr source  dropPkBitError
attr title  "packets dropped/bit error, count"
scalar StaticHierarchical.gw[1].lo0.lo 	droppedPkBitError:sum(packetBytes) 	0
attr interpolationmode  none
attr source  dropPkBitError
attr title  "packets dropped/bit error, sum(packetBytes)"
scalar StaticHierarchical.gw[1].lo0.lo 	rcvdPkFromHL:count 	0
attr interpolationmode  none
attr source  packetReceivedFromUpper
attr title  "packets received from higher layer, count"
scalar StaticHierarchical.gw[1].lo0.lo 	rcvdPkFromHL:sum(packetBytes) 	0
attr interpolationmode  none
attr source  packetReceivedFromUpper
attr title  "packets received from higher layer, sum(packetBytes)"
scalar StaticHierarchical.gw[1].lo0.lo 	passedUpPk:count 	0
attr interpolationmode  none
attr source  packetSentToUpper
attr title  "packets passed to higher layer, count"
scalar StaticHierarchical.gw[1].lo0.lo 	passedUpPk:sum(packetBytes) 	0
attr interpolationmode  none
attr source  packetSentToUpper
attr title  "packets passed to higher layer, sum(packetBytes)"
scalar StaticHierarchical.gw[1].wlan[0].mgmt 	dataQueueLen:max 	0
attr interpolationmode  sample-hold
attr title  "data queue length, max"
scalar StaticHierarchical.gw[1].wlan[0].mgmt 	dataQueueLen:timeavg 	0
attr interpolationmode  sample-hold
attr title  "data queue length, timeavg"
scalar StaticHierarchical.gw[1].wlan[0].mgmt 	dropPkByQueue:count 	0
attr interpolationmode  none
attr source  dropPkByQueue
attr title  "packets dropped by queue, count"
scalar StaticHierarchical.gw[1].wlan[0].mgmt 	dropPkByQueue:sum(packetBytes) 	0
attr interpolationmode  none
attr source  dropPkByQueue
attr title  "packets dropped by queue, sum(packetBytes)"
scalar StaticHierarchical.gw[1].wlan[0].mac 	"number of received packets" 	0
scalar StaticHierarchical.gw[1].wlan[0].mac 	"number of collisions" 	0
scalar StaticHierarchical.gw[1].wlan[0].mac 	"number of internal collisions" 	0
scalar StaticHierarchical.gw[1].wlan[0].mac 	"number of retry for AC 0" 	0
scalar StaticHierarchical.gw[1].wlan[0].mac 	"sent and received bits" 	0
scalar StaticHierarchical.gw[1].wlan[0].mac 	"sent packet within AC 0" 	0
scalar StaticHierarchical.gw[1].wlan[0].mac 	"sent in TXOP " 	0
scalar StaticHierarchical.gw[1].wlan[0].mac 	"sentWithoutRetry AC 0" 	0
scalar StaticHierarchical.gw[1].wlan[0].mac 	"numGivenUp AC 0" 	0
scalar StaticHierarchical.gw[1].wlan[0].mac 	"numDropped AC 0" 	0
scalar StaticHierarchical.gw[1].wlan[0].mac 	rcvdPkFromHL:count 	0
attr interpolationmode  none
attr source  packetReceivedFromUpper
attr title  "packets received from higher layer, count"
scalar StaticHierarchical.gw[1].wlan[0].mac 	rcvdPkFromHL:sum(packetBytes) 	0
attr interpolationmode  none
attr source  packetReceivedFromUpper
attr title  "packets received from higher layer, sum(packetBytes)"
scalar StaticHierarchical.gw[1].wlan[0].mac 	passedUpPk:count 	0
attr interpolationmode  none
attr source  packetSentToUpper
attr title  "packets passed to higher layer, count"
scalar StaticHierarchical.gw[1].wlan[0].mac 	passedUpPk:sum(packetBytes) 	0
attr interpolationmode  none
attr source  packetSentToUpper
attr title  "packets passed to higher layer, sum(packetBytes)"
scalar StaticHierarchical.gw[1].wlan[0].mac 	rcvdPkFromLL:count 	0
attr interpolationmode  none
attr source  packetReceivedFromLower
attr title  "packets received from lower layer, count"
scalar StaticHierarchical.gw[1].wlan[0].mac 	rcvdPkFromLL:sum(packetBytes) 	0
attr interpolationmode  none
attr source  packetReceivedFromLower
attr title  "packets received from lower layer, sum(packetBytes)"
scalar StaticHierarchical.gw[1].wlan[0].mac 	sentDownPk:count 	0
attr interpolationmode  none
attr source  packetSentToLower
attr title  "packets sent to lower layer, count"
scalar StaticHierarchical.gw[1].wlan[0].mac 	sentDownPk:sum(packetBytes) 	0
attr interpolationmode  none
attr source  packetSentToLower
attr title  "packets sent to lower layer, sum(packetBytes)"
scalar StaticHierarchical.gw[1].wlan[0].radio 	lossRate:min 	-nan
attr interpolationmode  backward-sample-hold
attr title  "packet loss rate, min"
scalar StaticHierarchical.gw[1].wlan[0].radio 	lossRate:max 	-nan
attr interpolationmode  backward-sample-hold
attr title  "packet loss rate, max"
scalar StaticHierarchical.gw[1].wlan[0].radio 	lossRate:timeavg 	-nan
attr interpolationmode  backward-sample-hold
attr title  "packet loss rate, timeavg"
statistic StaticHierarchical.gw[1].wlan[0].radio 	channelNo:histogram
field count 1
field mean 1
field stddev -nan
field sum 1
field sqrsum 1
field min 1
field max 1
attr interpolationmode  sample-hold
attr title  "channel no, histogram"
bin	-INF	0
bin	0	0
bin	1	1
bin	2	0
scalar StaticHierarchical.gw[1].wlan[0].radio 	bitrate:min 	11000000
attr interpolationmode  sample-hold
attr title  "tx bitrate, min"
attr unit  bps
scalar StaticHierarchical.gw[1].wlan[0].radio 	bitrate:max 	11000000
attr interpolationmode  sample-hold
attr title  "tx bitrate, max"
attr unit  bps
scalar StaticHierarchical.gw[1].wlan[0].radio 	bitrate:timeavg 	11000000
attr interpolationmode  sample-hold
attr title  "tx bitrate, timeavg"
attr unit  bps
scalar StaticHierarchical.gw[1].wlan[0].radio 	radioState:count 	1
attr interpolationmode  sample-hold
attr title  "radio state (enum), count"
scalar StaticHierarchical.gw[1].wlan[1].mgmt 	dataQueueLen:max 	10
attr interpolationmode  sample-hold
attr title  "data queue length, max"
scalar StaticHierarchical.gw[1].wlan[1].mgmt 	dataQueueLen:timeavg 	0.00047447183222222
attr interpolationmode  sample-hold
attr title  "data queue length, timeavg"
scalar StaticHierarchical.gw[1].wlan[1].mgmt 	dropPkByQueue:count 	23
attr interpolationmode  none
attr source  dropPkByQueue
attr title  "packets dropped by queue, count"
scalar StaticHierarchical.gw[1].wlan[1].mgmt 	dropPkByQueue:sum(packetBytes) 	4370
attr interpolationmode  none
attr source  dropPkByQueue
attr title  "packets dropped by queue, sum(packetBytes)"
scalar StaticHierarchical.gw[1].wlan[1].mac 	"number of received packets" 	46029
scalar StaticHierarchical.gw[1].wlan[1].mac 	"number of collisions" 	9978
scalar StaticHierarchical.gw[1].wlan[1].mac 	"number of internal collisions" 	0
scalar StaticHierarchical.gw[1].wlan[1].mac 	"number of retry for AC 0" 	4525
scalar StaticHierarchical.gw[1].wlan[1].mac 	"sent and received bits" 	69859520
scalar StaticHierarchical.gw[1].wlan[1].mac 	"sent packet within AC 0" 	45963
scalar StaticHierarchical.gw[1].wlan[1].mac 	"sent in TXOP " 	0
scalar StaticHierarchical.gw[1].wlan[1].mac 	"sentWithoutRetry AC 0" 	44107
scalar StaticHierarchical.gw[1].wlan[1].mac 	"numGivenUp AC 0" 	2
scalar StaticHierarchical.gw[1].wlan[1].mac 	"numDropped AC 0" 	0
scalar StaticHierarchical.gw[1].wlan[1].mac 	rcvdPkFromHL:count 	45978
attr interpolationmode  none
attr source  packetReceivedFromUpper
attr title  "packets received from higher layer, count"
scalar StaticHierarchical.gw[1].wlan[1].mac 	rcvdPkFromHL:sum(packetBytes) 	8732820
attr interpolationmode  none
attr source  packetReceivedFromUpper
attr title  "packets received from higher layer, sum(packetBytes)"
scalar StaticHierarchical.gw[1].wlan[1].mac 	passedUpPk:count 	46006
attr interpolationmode  none
attr source  packetSentToUpper
attr title  "packets passed to higher layer, count"
scalar StaticHierarchical.gw[1].wlan[1].mac 	passedUpPk:sum(packetBytes) 	8737540
attr interpolationmode  none
attr source  packetSentToUpper
attr title  "packets passed to higher layer, sum(packetBytes)"
scalar StaticHierarchical.gw[1].wlan[1].mac 	rcvdPkFromLL:count 	147405
attr interpolationmode  none
attr source  packetReceivedFromLower
attr title  "packets received from lower layer, count"
scalar StaticHierarchical.gw[1].wlan[1].mac 	rcvdPkFromLL:sum(packetBytes) 	15872982
attr interpolationmode  none
attr source  packetReceivedFromLower
attr title  "packets received from lower layer, sum(packetBytes)"
scalar StaticHierarchical.gw[1].wlan[1].mac 	sentDownPk:count 	96532
attr interpolationmode  none
attr source  packetSentToLower
attr title  "packets sent to lower layer, count"
scalar StaticHierarchical.gw[1].wlan[1].mac 	sentDownPk:sum(packetBytes) 	10236856
attr interpolationmode  none
attr source  packetSentToLower
attr title  "packets sent to lower layer, sum(packetBytes)"
scalar StaticHierarchical.gw[1].wlan[1].radio 	lossRate:min 	0
attr interpolationmode  backward-sample-hold
attr title  "packet loss rate, min"
scalar StaticHierarchical.gw[1].wlan[1].radio 	lossRate:max 	0.42
attr interpolationmode  backward-sample-hold
attr title  "packet loss rate, max"
scalar StaticHierarchical.gw[1].wlan[1].radio 	lossRate:timeavg 	0.067455777005763
attr interpolationmode  backward-sample-hold
attr title  "packet loss rate, timeavg"
statistic StaticHierarchical.gw[1].wlan[1].radio 	channelNo:histogram
field count 1
field mean 5
field stddev -nan
field sum 5
field sqrsum 25
field min 5
field max 5
attr interpolationmode  sample-hold
attr title  "channel no, histogram"
bin	-INF	0
bin	4	0
bin	5	1
bin	6	0
scalar StaticHierarchical.gw[1].wlan[1].radio 	bitrate:min 	11000000
attr interpolationmode  sample-hold
attr title  "tx bitrate, min"
attr unit  bps
scalar StaticHierarchical.gw[1].wlan[1].radio 	bitrate:max 	11000000
attr interpolationmode  sample-hold
attr title  "tx bitrate, max"
attr unit  bps
scalar StaticHierarchical.gw[1].wlan[1].radio 	bitrate:timeavg 	11000000
attr interpolationmode  sample-hold
attr title  "tx bitrate, timeavg"
attr unit  bps
scalar StaticHierarchical.gw[1].wlan[1].radio 	radioState:count 	486882
attr interpolationmode  sample-hold
attr title  "radio state (enum), count"
scalar StaticHierarchical.gw[1].udp 	droppedPkBadChecksum:count 	0
attr interpolationmode  none
attr title  "packets dropped (checksum error), count"
scalar StaticHierarchical.gw[1].udp 	droppedPkWrongPort:count 	0
attr interpolationmode  none
attr title  "packets dropped (wrong port), count"
scalar StaticHierarchical.gw[1].udp 	passedUpPk:count 	0
attr interpolationmode  none
attr title  "packets passed up, count"
scalar StaticHierarchical.gw[1].udp 	rcvdPk:count 	0
attr interpolationmode  none
attr source  rcvdPk
attr title  "packets received, count"
scalar StaticHierarchical.gw[1].udp 	rcvdPk:sum(packetBytes) 	0
attr interpolationmode  none
attr source  rcvdPk
attr title  "packets received, sum(packetBytes)"
scalar StaticHierarchical.gw[1].udp 	sentPk:count 	0
attr interpolationmode  none
attr source  sentPk
attr title  "packets sent, count"
scalar StaticHierarchical.gw[1].udp 	sentPk:sum(packetBytes) 	0
attr interpolationmode  none
attr source  sentPk
attr title  "packets sent, sum(packetBytes)"
scalar StaticHierarchical.gw[1].pingApp[0] 	numOutOfOrderArrivals:last 	-nan
attr interpolationmode  none
attr title  "ping out-of-order arrivals, last"
scalar StaticHierarchical.gw[1].pingApp[0] 	pingRxSeq:count 	0
attr interpolationmode  none
attr title  "ping rx seq, count"
scalar StaticHierarchical.gw[1].pingApp[0] 	pingTxSeq:count 	0
attr interpolationmode  none
attr title  "ping tx seq, count"
scalar StaticHierarchical.gw[1].pingApp[0] 	numLost:last 	-nan
attr interpolationmode  none
attr title  "pings lost, last"
statistic StaticHierarchical.gw[1].pingApp[0] 	rtt:histogram
field count 0
field mean -nan
field stddev -nan
field sum 0
field sqrsum 0
field min -nan
field max -nan
attr interpolationmode  none
attr title  "ping round-trip time, histogram"
attr unit  s
bin	-INF	0
bin	-0.5	0
bin	-0.46666666666667	0
bin	-0.43333333333333	0
bin	-0.4	0
bin	-0.36666666666667	0
bin	-0.33333333333333	0
bin	-0.3	0
bin	-0.26666666666667	0
bin	-0.23333333333333	0
bin	-0.2	0
bin	-0.16666666666667	0
bin	-0.13333333333333	0
bin	-0.1	0
bin	-0.066666666666667	0
bin	-0.033333333333333	0
bin	0	0
bin	0.033333333333333	0
bin	0.066666666666667	0
bin	0.1	0
bin	0.13333333333333	0
bin	0.16666666666667	0
bin	0.2	0
bin	0.23333333333333	0
bin	0.26666666666667	0
bin	0.3	0
bin	0.33333333333333	0
bin	0.36666666666667	0
bin	0.4	0
bin	0.43333333333333	0
bin	0.46666666666667	0
bin	0.5	0
scalar StaticHierarchical.gw[1].pingTestApp[0] 	numOutOfOrderArrivals:last 	-nan
attr interpolationmode  none
attr title  "ping out-of-order arrivals, last"
scalar StaticHierarchical.gw[1].pingTestApp[0] 	pingRxSeq:count 	0
attr interpolationmode  none
attr title  "ping rx seq, count"
scalar StaticHierarchical.gw[1].pingTestApp[0] 	pingTxSeq:count 	0
attr interpolationmode  none
attr title  "ping tx seq, count"
scalar StaticHierarchical.gw[1].pingTestApp[0] 	numLost:last 	-nan
attr interpolationmode  none
attr title  "pings lost, last"
statistic StaticHierarchical.gw[1].pingTestApp[0] 	rtt:histogram
field count 0
field mean -nan
field stddev -nan
field sum 0
field sqrsum 0
field min -nan
field max -nan
attr interpolationmode  none
attr title  "ping round-trip time, histogram"
attr unit  s
bin	-INF	0
bin	-0.5	0
bin	-0.46666666666667	0
bin	-0.43333333333333	0
bin	-0.4	0
bin	-0.36666666666667	0
bin	-0.33333333333333	0
bin	-0.3	0
bin	-0.26666666666667	0
bin	-0.23333333333333	0
bin	-0.2	0
bin	-0.16666666666667	0
bin	-0.13333333333333	0
bin	-0.1	0
bin	-0.066666666666667	0
bin	-0.033333333333333	0
bin	0	0
bin	0.033333333333333	0
bin	0.066666666666667	0
bin	0.1	0
bin	0.13333333333333	0
bin	0.16666666666667	0
bin	0.2	0
bin	0.23333333333333	0
bin	0.26666666666667	0
bin	0.3	0
bin	0.33333333333333	0
bin	0.36666666666667	0
bin	0.4	0
bin	0.43333333333333	0
bin	0.46666666666667	0
bin	0.5	0
scalar StaticHierarchical.gw[2].networkLayer.arp 	failedARPResolution:count 	0
attr title  "ARP failed resolutions, count"
scalar StaticHierarchical.gw[2].networkLayer.arp 	completedARPResolution:count 	36
attr title  "ARP completed resolutions, count"
scalar StaticHierarchical.gw[2].networkLayer.arp 	initiatedARPResolution:count 	12
attr title  "ARP initiated resolutions, count"
scalar StaticHierarchical.gw[2].networkLayer.arp 	sentReply:count 	12
attr title  "ARP replies sent, count"
scalar StaticHierarchical.gw[2].networkLayer.arp 	sentReq:count 	12
attr title  "ARP request sent, count"
scalar StaticHierarchical.gw[2].lo0.lo 	droppedPkBitError:count 	0
attr interpolationmode  none
attr source  dropPkBitError
attr title  "packets dropped/bit error, count"
scalar StaticHierarchical.gw[2].lo0.lo 	droppedPkBitError:sum(packetBytes) 	0
attr interpolationmode  none
attr source  dropPkBitError
attr title  "packets dropped/bit error, sum(packetBytes)"
scalar StaticHierarchical.gw[2].lo0.lo 	rcvdPkFromHL:count 	0
attr interpolationmode  none
attr source  packetReceivedFromUpper
attr title  "packets received from higher layer, count"
scalar StaticHierarchical.gw[2].lo0.lo 	rcvdPkFromHL:sum(packetBytes) 	0
attr interpolationmode  none
attr source  packetReceivedFromUpper
attr title  "packets received from higher layer, sum(packetBytes)"
scalar StaticHierarchical.gw[2].lo0.lo 	passedUpPk:count 	0
attr interpolationmode  none
attr source  packetSentToUpper
attr title  "packets passed to higher layer, count"
scalar StaticHierarchical.gw[2].lo0.lo 	passedUpPk:sum(packetBytes) 	0
attr interpolationmode  none
attr source  packetSentToUpper
attr title  "packets passed to higher layer, sum(packetBytes)"
scalar StaticHierarchical.gw[2].wlan[0].mgmt 	dataQueueLen:max 	0
attr interpolationmode  sample-hold
attr title  "data queue length, max"
scalar StaticHierarchical.gw[2].wlan[0].mgmt 	dataQueueLen:timeavg 	0
attr interpolationmode  sample-hold
attr title  "data queue length, timeavg"
scalar StaticHierarchical.gw[2].wlan[0].mgmt 	dropPkByQueue:count 	0
attr interpolationmode  none
attr source  dropPkByQueue
attr title  "packets dropped by queue, count"
scalar StaticHierarchical.gw[2].wlan[0].mgmt 	dropPkByQueue:sum(packetBytes) 	0
attr interpolationmode  none
attr source  dropPkByQueue
attr title  "packets dropped by queue, sum(packetBytes)"
scalar StaticHierarchical.gw[2].wlan[0].mac 	"number of received packets" 	0
scalar StaticHierarchical.gw[2].wlan[0].mac 	"number of collisions" 	0
scalar StaticHierarchical.gw[2].wlan[0].mac 	"number of internal collisions" 	0
scalar StaticHierarchical.gw[2].wlan[0].mac 	"number of retry for AC 0" 	0
scalar StaticHierarchical.gw[2].wlan[0].mac 	"sent and received bits" 	0
scalar StaticHierarchical.gw[2].wlan[0].mac 	"sent packet within AC 0" 	0
scalar StaticHierarchical.gw[2].wlan[0].mac 	"sent in TXOP " 	0
scalar StaticHierarchical.gw[2].wlan[0].mac 	"sentWithoutRetry AC 0" 	0
scalar StaticHierarchical.gw[2].wlan[0].mac 	"numGivenUp AC 0" 	0
scalar StaticHierarchical.gw[2].wlan[0].mac 	"numDropped AC 0" 	0
scalar StaticHierarchical.gw[2].wlan[0].mac 	rcvdPkFromHL:count 	0
attr interpolationmode  none
attr source  packetReceivedFromUpper
attr title  "packets received from higher layer, count"
scalar StaticHierarchical.gw[2].wlan[0].mac 	rcvdPkFromHL:sum(packetBytes) 	0
attr interpolationmode  none
attr source  packetReceivedFromUpper
attr title  "packets received from higher layer, sum(packetBytes)"
scalar StaticHierarchical.gw[2].wlan[0].mac 	passedUpPk:count 	0
attr interpolationmode  none
attr source  packetSentToUpper
attr title  "packets passed to higher layer, count"
scalar StaticHierarchical.gw[2].wlan[0].mac 	passedUpPk:sum(packetBytes) 	0
attr interpolationmode  none
attr source  packetSentToUpper
attr title  "packets passed to higher layer, sum(packetBytes)"
scalar StaticHierarchical.gw[2].wlan[0].mac 	rcvdPkFromLL:count 	0
attr interpolationmode  none
attr source  packetReceivedFromLower
attr title  "packets received from lower layer, count"
scalar StaticHierarchical.gw[2].wlan[0].mac 	rcvdPkFromLL:sum(packetBytes) 	0
attr interpolationmode  none
attr source  packetReceivedFromLower
attr title  "packets received from lower layer, sum(packetBytes)"
scalar StaticHierarchical.gw[2].wlan[0].mac 	sentDownPk:count 	0
attr interpolationmode  none
attr source  packetSentToLower
attr title  "packets sent to lower layer, count"
scalar StaticHierarchical.gw[2].wlan[0].mac 	sentDownPk:sum(packetBytes) 	0
attr interpolationmode  none
attr source  packetSentToLower
attr title  "packets sent to lower layer, sum(packetBytes)"
scalar StaticHierarchical.gw[2].wlan[0].radio 	lossRate:min 	-nan
attr interpolationmode  backward-sample-hold
attr title  "packet loss rate, min"
scalar StaticHierarchical.gw[2].wlan[0].radio 	lossRate:max 	-nan
attr interpolationmode  backward-sample-hold
attr title  "packet loss rate, max"
scalar StaticHierarchical.gw[2].wlan[0].radio 	lossRate:timeavg 	-nan
attr interpolationmode  backward-sample-hold
attr title  "packet loss rate, timeavg"
statistic StaticHierarchical.gw[2].wlan[0].radio 	channelNo:histogram
field count 1
field mean 2
field stddev -nan
field sum 2
field sqrsum 4
field min 2
field max 2
attr interpolationmode  sample-hold
attr title  "channel no, histogram"
bin	-INF	0
bin	1	0
bin	2	1
bin	3	0
scalar StaticHierarchical.gw[2].wlan[0].radio 	bitrate:min 	11000000
attr interpolationmode  sample-hold
attr title  "tx bitrate, min"
attr unit  bps
scalar StaticHierarchical.gw[2].wlan[0].radio 	bitrate:max 	11000000
attr interpolationmode  sample-hold
attr title  "tx bitrate, max"
attr unit  bps
scalar StaticHierarchical.gw[2].wlan[0].radio 	bitrate:timeavg 	11000000
attr interpolationmode  sample-hold
attr title  "tx bitrate, timeavg"
attr unit  bps
scalar StaticHierarchical.gw[2].wlan[0].radio 	radioState:count 	1
attr interpolationmode  sample-hold
attr title  "radio state (enum), count"
scalar StaticHierarchical.gw[2].wlan[1].mgmt 	dataQueueLen:max 	3
attr interpolationmode  sample-hold
attr title  "data queue length, max"
scalar StaticHierarchical.gw[2].wlan[1].mgmt 	dataQueueLen:timeavg 	0.00018388396555556
attr interpolationmode  sample-hold
attr title  "data queue length, timeavg"
scalar StaticHierarchical.gw[2].wlan[1].mgmt 	dropPkByQueue:count 	0
attr interpolationmode  none
attr source  dropPkByQueue
attr title  "packets dropped by queue, count"
scalar StaticHierarchical.gw[2].wlan[1].mgmt 	dropPkByQueue:sum(packetBytes) 	0
attr interpolationmode  none
attr source  dropPkByQueue
attr title  "packets dropped by queue, sum(packetBytes)"
scalar StaticHierarchical.gw[2].wlan[1].mac 	"number of received packets" 	45986
scalar StaticHierarchical.gw[2].wlan[1].mac 	"number of collisions" 	12193
scalar StaticHierarchical.gw[2].wlan[1].mac 	"number of internal collisions" 	0
scalar StaticHierarchical.gw[2].wlan[1].mac 	"number of retry for AC 0" 	4374
scalar StaticHierarchical.gw[2].wlan[1].mac 	"sent and received bits" 	69893920
scalar StaticHierarchical.gw[2].wlan[1].mac 	"sent packet within AC 0" 	45986
scalar StaticHierarchical.gw[2].wlan[1].mac 	"sent in TXOP " 	0
scalar StaticHierarchical.gw[2].wlan[1].mac 	"sentWithoutRetry AC 0" 	43564
scalar StaticHierarchical.gw[2].wlan[1].mac 	"numGivenUp AC 0" 	0
scalar StaticHierarchical.gw[2].wlan[1].mac 	"numDropped AC 0" 	0
scalar StaticHierarchical.gw[2].wlan[1].mac 	rcvdPkFromHL:count 	45998
attr interpolationmode  none
attr source  packetReceivedFromUpper
attr title  "packets received from higher layer, count"
scalar StaticHierarchical.gw[2].wlan[1].mac 	rcvdPkFromHL:sum(packetBytes) 	8736740
attr interpolationmode  none
attr source  packetReceivedFromUpper
attr title  "packets received from higher layer, sum(packetBytes)"
scalar StaticHierarchical.gw[2].wlan[1].mac 	passedUpPk:count 	46011
attr interpolationmode  none
attr source  packetSentToUpper
attr title  "packets passed to higher layer, count"
scalar StaticHierarchical.gw[2].wlan[1].mac 	passedUpPk:sum(packetBytes) 	8737650
attr interpolationmode  none
attr source  packetSentToUpper
attr title  "packets passed to higher layer, sum(packetBytes)"
scalar StaticHierarchical.gw[2].wlan[1].mac 	rcvdPkFromLL:count 	190249
attr interpolationmode  none
attr source  packetReceivedFromLower
attr title  "packets received from lower layer, count"
scalar StaticHierarchical.gw[2].wlan[1].mac 	rcvdPkFromLL:sum(packetBytes) 	19955822
attr interpolationmode  none
attr source  packetReceivedFromLower
attr title  "packets received from lower layer, sum(packetBytes)"
scalar StaticHierarchical.gw[2].wlan[1].mac 	sentDownPk:count 	96358
attr interpolationmode  none
attr source  packetSentToLower
attr title  "packets sent to lower layer, count"
scalar StaticHierarchical.gw[2].wlan[1].mac 	sentDownPk:sum(packetBytes) 	10211124
attr interpolationmode  none
attr source  packetSentToLower
attr title  "packets sent to lower layer, sum(packetBytes)"
scalar StaticHierarchical.gw[2].wlan[1].radio 	lossRate:min 	0
attr interpolationmode  backward-sample-hold
attr title  "packet loss rate, min"
scalar StaticHierarchical.gw[2].wlan[1].radio 	lossRate:max 	0.36
attr interpolationmode  backward-sample-hold
attr title  "packet loss rate, max"
scalar StaticHierarchical.gw[2].wlan[1].radio 	lossRate:timeavg 	0.066622060296419
attr interpolationmode  backward-sample-hold
attr title  "packet loss rate, timeavg"
statistic StaticHierarchical.gw[2].wlan[1].radio 	channelNo:histogram
field count 1
field mean 5
field stddev -nan
field sum 5
field sqrsum 25
field min 5
field max 5
attr interpolationmode  sample-hold
attr title  "channel no, histogram"
bin	-INF	0
bin	4	0
bin	5	1
bin	6	0
scalar StaticHierarchical.gw[2].wlan[1].radio 	bitrate:min 	11000000
attr interpolationmode  sample-hold
attr title  "tx bitrate, min"
attr unit  bps
scalar StaticHierarchical.gw[2].wlan[1].radio 	bitrate:max 	11000000
attr interpolationmode  sample-hold
attr title  "tx bitrate, max"
attr unit  bps
scalar StaticHierarchical.gw[2].wlan[1].radio 	bitrate:timeavg 	11000000
attr interpolationmode  sample-hold
attr title  "tx bitrate, timeavg"
attr unit  bps
scalar StaticHierarchical.gw[2].wlan[1].radio 	radioState:count 	582705
attr interpolationmode  sample-hold
attr title  "radio state (enum), count"
scalar StaticHierarchical.gw[2].udp 	droppedPkBadChecksum:count 	0
attr interpolationmode  none
attr title  "packets dropped (checksum error), count"
scalar StaticHierarchical.gw[2].udp 	droppedPkWrongPort:count 	0
attr interpolationmode  none
attr title  "packets dropped (wrong port), count"
scalar StaticHierarchical.gw[2].udp 	passedUpPk:count 	0
attr interpolationmode  none
attr title  "packets passed up, count"
scalar StaticHierarchical.gw[2].udp 	rcvdPk:count 	0
attr interpolationmode  none
attr source  rcvdPk
attr title  "packets received, count"
scalar StaticHierarchical.gw[2].udp 	rcvdPk:sum(packetBytes) 	0
attr interpolationmode  none
attr source  rcvdPk
attr title  "packets received, sum(packetBytes)"
scalar StaticHierarchical.gw[2].udp 	sentPk:count 	0
attr interpolationmode  none
attr source  sentPk
attr title  "packets sent, count"
scalar StaticHierarchical.gw[2].udp 	sentPk:sum(packetBytes) 	0
attr interpolationmode  none
attr source  sentPk
attr title  "packets sent, sum(packetBytes)"
scalar StaticHierarchical.gw[2].pingApp[0] 	numOutOfOrderArrivals:last 	-nan
attr interpolationmode  none
attr title  "ping out-of-order arrivals, last"
scalar StaticHierarchical.gw[2].pingApp[0] 	pingRxSeq:count 	0
attr interpolationmode  none
attr title  "ping rx seq, count"
scalar StaticHierarchical.gw[2].pingApp[0] 	pingTxSeq:count 	0
attr interpolationmode  none
attr title  "ping tx seq, count"
scalar StaticHierarchical.gw[2].pingApp[0] 	numLost:last 	-nan
attr interpolationmode  none
attr title  "pings lost, last"
statistic StaticHierarchical.gw[2].pingApp[0] 	rtt:histogram
field count 0
field mean -nan
field stddev -nan
field sum 0
field sqrsum 0
field min -nan
field max -nan
attr interpolationmode  none
attr title  "ping round-trip time, histogram"
attr unit  s
bin	-INF	0
bin	-0.5	0
bin	-0.46666666666667	0
bin	-0.43333333333333	0
bin	-0.4	0
bin	-0.36666666666667	0
bin	-0.33333333333333	0
bin	-0.3	0
bin	-0.26666666666667	0
bin	-0.23333333333333	0
bin	-0.2	0
bin	-0.16666666666667	0
bin	-0.13333333333333	0
bin	-0.1	0
bin	-0.066666666666667	0
bin	-0.033333333333333	0
bin	0	0
bin	0.033333333333333	0
bin	0.066666666666667	0
bin	0.1	0
bin	0.13333333333333	0
bin	0.16666666666667	0
bin	0.2	0
bin	0.23333333333333	0
bin	0.26666666666667	0
bin	0.3	0
bin	0.33333333333333	0
bin	0.36666666666667	0
bin	0.4	0
bin	0.43333333333333	0
bin	0.46666666666667	0
bin	0.5	0
scalar StaticHierarchical.gw[2].pingTestApp[0] 	numOutOfOrderArrivals:last 	-nan
attr interpolationmode  none
attr title  "ping out-of-order arrivals, last"
scalar StaticHierarchical.gw[2].pingTestApp[0] 	pingRxSeq:count 	0
attr interpolationmode  none
attr title  "ping rx seq, count"
scalar StaticHierarchical.gw[2].pingTestApp[0] 	pingTxSeq:count 	0
attr interpolationmode  none
attr title  "ping tx seq, count"
scalar StaticHierarchical.gw[2].pingTestApp[0] 	numLost:last 	-nan
attr interpolationmode  none
attr title  "pings lost, last"
statistic StaticHierarchical.gw[2].pingTestApp[0] 	rtt:histogram
field count 0
field mean -nan
field stddev -nan
field sum 0
field sqrsum 0
field min -nan
field max -nan
attr interpolationmode  none
attr title  "ping round-trip time, histogram"
attr unit  s
bin	-INF	0
bin	-0.5	0
bin	-0.46666666666667	0
bin	-0.43333333333333	0
bin	-0.4	0
bin	-0.36666666666667	0
bin	-0.33333333333333	0
bin	-0.3	0
bin	-0.26666666666667	0
bin	-0.23333333333333	0
bin	-0.2	0
bin	-0.16666666666667	0
bin	-0.13333333333333	0
bin	-0.1	0
bin	-0.066666666666667	0
bin	-0.033333333333333	0
bin	0	0
bin	0.033333333333333	0
bin	0.066666666666667	0
bin	0.1	0
bin	0.13333333333333	0
bin	0.16666666666667	0
bin	0.2	0
bin	0.23333333333333	0
bin	0.26666666666667	0
bin	0.3	0
bin	0.33333333333333	0
bin	0.36666666666667	0
bin	0.4	0
bin	0.43333333333333	0
bin	0.46666666666667	0
bin	0.5	0
scalar StaticHierarchical.gw[3].networkLayer.arp 	failedARPResolution:count 	0
attr title  "ARP failed resolutions, count"
scalar StaticHierarchical.gw[3].networkLayer.arp 	completedARPResolution:count 	29
attr title  "ARP completed resolutions, count"
scalar StaticHierarchical.gw[3].networkLayer.arp 	initiatedARPResolution:count 	12
attr title  "ARP initiated resolutions, count"
scalar StaticHierarchical.gw[3].networkLayer.arp 	sentReply:count 	12
attr title  "ARP replies sent, count"
scalar StaticHierarchical.gw[3].networkLayer.arp 	sentReq:count 	12
attr title  "ARP request sent, count"
scalar StaticHierarchical.gw[3].lo0.lo 	droppedPkBitError:count 	0
attr interpolationmode  none
attr source  dropPkBitError
attr title  "packets dropped/bit error, count"
scalar StaticHierarchical.gw[3].lo0.lo 	droppedPkBitError:sum(packetBytes) 	0
attr interpolationmode  none
attr source  dropPkBitError
attr title  "packets dropped/bit error, sum(packetBytes)"
scalar StaticHierarchical.gw[3].lo0.lo 	rcvdPkFromHL:count 	0
attr interpolationmode  none
attr source  packetReceivedFromUpper
attr title  "packets received from higher layer, count"
scalar StaticHierarchical.gw[3].lo0.lo 	rcvdPkFromHL:sum(packetBytes) 	0
attr interpolationmode  none
attr source  packetReceivedFromUpper
attr title  "packets received from higher layer, sum(packetBytes)"
scalar StaticHierarchical.gw[3].lo0.lo 	passedUpPk:count 	0
attr interpolationmode  none
attr source  packetSentToUpper
attr title  "packets passed to higher layer, count"
scalar StaticHierarchical.gw[3].lo0.lo 	passedUpPk:sum(packetBytes) 	0
attr interpolationmode  none
attr source  packetSentToUpper
attr title  "packets passed to higher layer, sum(packetBytes)"
scalar StaticHierarchical.gw[3].wlan[0].mgmt 	dataQueueLen:max 	0
attr interpolationmode  sample-hold
attr title  "data queue length, max"
scalar StaticHierarchical.gw[3].wlan[0].mgmt 	dataQueueLen:timeavg 	0
attr interpolationmode  sample-hold
attr title  "data queue length, timeavg"
scalar StaticHierarchical.gw[3].wlan[0].mgmt 	dropPkByQueue:count 	0
attr interpolationmode  none
attr source  dropPkByQueue
attr title  "packets dropped by queue, count"
scalar StaticHierarchical.gw[3].wlan[0].mgmt 	dropPkByQueue:sum(packetBytes) 	0
attr interpolationmode  none
attr source  dropPkByQueue
attr title  "packets dropped by queue, sum(packetBytes)"
scalar StaticHierarchical.gw[3].wlan[0].mac 	"number of received packets" 	0
scalar StaticHierarchical.gw[3].wlan[0].mac 	"number of collisions" 	0
scalar StaticHierarchical.gw[3].wlan[0].mac 	"number of internal collisions" 	0
scalar StaticHierarchical.gw[3].wlan[0].mac 	"number of retry for AC 0" 	0
scalar StaticHierarchical.gw[3].wlan[0].mac 	"sent and received bits" 	0
scalar StaticHierarchical.gw[3].wlan[0].mac 	"sent packet within AC 0" 	0
scalar StaticHierarchical.gw[3].wlan[0].mac 	"sent in TXOP " 	0
scalar StaticHierarchical.gw[3].wlan[0].mac 	"sentWithoutRetry AC 0" 	0
scalar StaticHierarchical.gw[3].wlan[0].mac 	"numGivenUp AC 0" 	0
scalar StaticHierarchical.gw[3].wlan[0].mac 	"numDropped AC 0" 	0
scalar StaticHierarchical.gw[3].wlan[0].mac 	rcvdPkFromHL:count 	0
attr interpolationmode  none
attr source  packetReceivedFromUpper
attr title  "packets received from higher layer, count"
scalar StaticHierarchical.gw[3].wlan[0].mac 	rcvdPkFromHL:sum(packetBytes) 	0
attr interpolationmode  none
attr source  packetReceivedFromUpper
attr title  "packets received from higher layer, sum(packetBytes)"
scalar StaticHierarchical.gw[3].wlan[0].mac 	passedUpPk:count 	0
attr interpolationmode  none
attr source  packetSentToUpper
attr title  "packets passed to higher layer, count"
scalar StaticHierarchical.gw[3].wlan[0].mac 	passedUpPk:sum(packetBytes) 	0
attr interpolationmode  none
attr source  packetSentToUpper
attr title  "packets passed to higher layer, sum(packetBytes)"
scalar StaticHierarchical.gw[3].wlan[0].mac 	rcvdPkFromLL:count 	0
attr interpolationmode  none
attr source  packetReceivedFromLower
attr title  "packets received from lower layer, count"
scalar StaticHierarchical.gw[3].wlan[0].mac 	rcvdPkFromLL:sum(packetBytes) 	0
attr interpolationmode  none
attr source  packetReceivedFromLower
attr title  "packets received from lower layer, sum(packetBytes)"
scalar StaticHierarchical.gw[3].wlan[0].mac 	sentDownPk:count 	0
attr interpolationmode  none
attr source  packetSentToLower
attr title  "packets sent to lower layer, count"
scalar StaticHierarchical.gw[3].wlan[0].mac 	sentDownPk:sum(packetBytes) 	0
attr interpolationmode  none
attr source  packetSentToLower
attr title  "packets sent to lower layer, sum(packetBytes)"
scalar StaticHierarchical.gw[3].wlan[0].radio 	lossRate:min 	-nan
attr interpolationmode  backward-sample-hold
attr title  "packet loss rate, min"
scalar StaticHierarchical.gw[3].wlan[0].radio 	lossRate:max 	-nan
attr interpolationmode  backward-sample-hold
attr title  "packet loss rate, max"
scalar StaticHierarchical.gw[3].wlan[0].radio 	lossRate:timeavg 	-nan
attr interpolationmode  backward-sample-hold
attr title  "packet loss rate, timeavg"
statistic StaticHierarchical.gw[3].wlan[0].radio 	channelNo:histogram
field count 1
field mean 3
field stddev -nan
field sum 3
field sqrsum 9
field min 3
field max 3
attr interpolationmode  sample-hold
attr title  "channel no, histogram"
bin	-INF	0
bin	2	0
bin	3	1
bin	4	0
scalar StaticHierarchical.gw[3].wlan[0].radio 	bitrate:min 	11000000
attr interpolationmode  sample-hold
attr title  "tx bitrate, min"
attr unit  bps
scalar StaticHierarchical.gw[3].wlan[0].radio 	bitrate:max 	11000000
attr interpolationmode  sample-hold
attr title  "tx bitrate, max"
attr unit  bps
scalar StaticHierarchical.gw[3].wlan[0].radio 	bitrate:timeavg 	11000000
attr interpolationmode  sample-hold
attr title  "tx bitrate, timeavg"
attr unit  bps
scalar StaticHierarchical.gw[3].wlan[0].radio 	radioState:count 	1
attr interpolationmode  sample-hold
attr title  "radio state (enum), count"
scalar StaticHierarchical.gw[3].wlan[1].mgmt 	dataQueueLen:max 	4
attr interpolationmode  sample-hold
attr title  "data queue length, max"
scalar StaticHierarchical.gw[3].wlan[1].mgmt 	dataQueueLen:timeavg 	0.00039272801777778
attr interpolationmode  sample-hold
attr title  "data queue length, timeavg"
scalar StaticHierarchical.gw[3].wlan[1].mgmt 	dropPkByQueue:count 	0
attr interpolationmode  none
attr source  dropPkByQueue
attr title  "packets dropped by queue, count"
scalar StaticHierarchical.gw[3].wlan[1].mgmt 	dropPkByQueue:sum(packetBytes) 	0
attr interpolationmode  none
attr source  dropPkByQueue
attr title  "packets dropped by queue, sum(packetBytes)"
scalar StaticHierarchical.gw[3].wlan[1].mac 	"number of received packets" 	46026
scalar StaticHierarchical.gw[3].wlan[1].mac 	"number of collisions" 	10326
scalar StaticHierarchical.gw[3].wlan[1].mac 	"number of internal collisions" 	0
scalar StaticHierarchical.gw[3].wlan[1].mac 	"number of retry for AC 0" 	4206
scalar StaticHierarchical.gw[3].wlan[1].mac 	"sent and received bits" 	69893920
scalar StaticHierarchical.gw[3].wlan[1].mac 	"sent packet within AC 0" 	45986
scalar StaticHierarchical.gw[3].wlan[1].mac 	"sent in TXOP " 	0
scalar StaticHierarchical.gw[3].wlan[1].mac 	"sentWithoutRetry AC 0" 	44203
scalar StaticHierarchical.gw[3].wlan[1].mac 	"numGivenUp AC 0" 	3
scalar StaticHierarchical.gw[3].wlan[1].mac 	"numDropped AC 0" 	0
scalar StaticHierarchical.gw[3].wlan[1].mac 	rcvdPkFromHL:count 	46001
attr interpolationmode  none
attr source  packetReceivedFromUpper
attr title  "packets received from higher layer, count"
scalar StaticHierarchical.gw[3].wlan[1].mac 	rcvdPkFromHL:sum(packetBytes) 	8737310
attr interpolationmode  none
attr source  packetReceivedFromUpper
attr title  "packets received from higher layer, sum(packetBytes)"
scalar StaticHierarchical.gw[3].wlan[1].mac 	passedUpPk:count 	46006
attr interpolationmode  none
attr source  packetSentToUpper
attr title  "packets passed to higher layer, count"
scalar StaticHierarchical.gw[3].wlan[1].mac 	passedUpPk:sum(packetBytes) 	8737660
attr interpolationmode  none
attr source  packetSentToUpper
attr title  "packets passed to higher layer, sum(packetBytes)"
scalar StaticHierarchical.gw[3].wlan[1].mac 	rcvdPkFromLL:count 	147766
attr interpolationmode  none
attr source  packetReceivedFromLower
attr title  "packets received from lower layer, count"
scalar StaticHierarchical.gw[3].wlan[1].mac 	rcvdPkFromLL:sum(packetBytes) 	15939652
attr interpolationmode  none
attr source  packetReceivedFromLower
attr title  "packets received from lower layer, sum(packetBytes)"
scalar StaticHierarchical.gw[3].wlan[1].mac 	sentDownPk:count 	96233
attr interpolationmode  none
attr source  packetSentToLower
attr title  "packets sent to lower layer, count"
scalar StaticHierarchical.gw[3].wlan[1].mac 	sentDownPk:sum(packetBytes) 	10180814
attr interpolationmode  none
attr source  packetSentToLower
attr title  "packets sent to lower layer, sum(packetBytes)"
scalar StaticHierarchical.gw[3].wlan[1].radio 	lossRate:min 	0
attr interpolationmode  backward-sample-hold
attr title  "packet loss rate, min"
scalar StaticHierarchical.gw[3].wlan[1].radio 	lossRate:max 	0.54
attr interpolationmode  backward-sample-hold
attr title  "packet loss rate, max"
scalar StaticHierarchical.gw[3].wlan[1].radio 	lossRate:timeavg 	0.069684840918672
attr interpolationmode  backward-sample-hold
attr title  "packet loss rate, timeavg"
statistic StaticHierarchical.gw[3].wlan[1].radio 	channelNo:histogram
field count 1
field mean 5
field stddev -nan
field sum 5
field sqrsum 25
field min 5
field max 5
attr interpolationmode  sample-hold
attr title  "channel no, histogram"
bin	-INF	0
bin	4	0
bin	5	1
bin	6	0
scalar StaticHierarchical.gw[3].wlan[1].radio 	bitrate:min 	11000000
attr interpolationmode  sample-hold
attr title  "tx bitrate, min"
attr unit  bps
scalar StaticHierarchical.gw[3].wlan[1].radio 	bitrate:max 	11000000
attr interpolationmode  sample-hold
attr title  "tx bitrate, max"
attr unit  bps
scalar StaticHierarchical.gw[3].wlan[1].radio 	bitrate:timeavg 	11000000
attr interpolationmode  sample-hold
attr title  "tx bitrate, timeavg"
attr unit  bps
scalar StaticHierarchical.gw[3].wlan[1].radio 	radioState:count 	486924
attr interpolationmode  sample-hold
attr title  "radio state (enum), count"
scalar StaticHierarchical.gw[3].udp 	droppedPkBadChecksum:count 	0
attr interpolationmode  none
attr title  "packets dropped (checksum error), count"
scalar StaticHierarchical.gw[3].udp 	droppedPkWrongPort:count 	0
attr interpolationmode  none
attr title  "packets dropped (wrong port), count"
scalar StaticHierarchical.gw[3].udp 	passedUpPk:count 	0
attr interpolationmode  none
attr title  "packets passed up, count"
scalar StaticHierarchical.gw[3].udp 	rcvdPk:count 	0
attr interpolationmode  none
attr source  rcvdPk
attr title  "packets received, count"
scalar StaticHierarchical.gw[3].udp 	rcvdPk:sum(packetBytes) 	0
attr interpolationmode  none
attr source  rcvdPk
attr title  "packets received, sum(packetBytes)"
scalar StaticHierarchical.gw[3].udp 	sentPk:count 	0
attr interpolationmode  none
attr source  sentPk
attr title  "packets sent, count"
scalar StaticHierarchical.gw[3].udp 	sentPk:sum(packetBytes) 	0
attr interpolationmode  none
attr source  sentPk
attr title  "packets sent, sum(packetBytes)"
scalar StaticHierarchical.gw[3].pingApp[0] 	numOutOfOrderArrivals:last 	-nan
attr interpolationmode  none
attr title  "ping out-of-order arrivals, last"
scalar StaticHierarchical.gw[3].pingApp[0] 	pingRxSeq:count 	0
attr interpolationmode  none
attr title  "ping rx seq, count"
scalar StaticHierarchical.gw[3].pingApp[0] 	pingTxSeq:count 	0
attr interpolationmode  none
attr title  "ping tx seq, count"
scalar StaticHierarchical.gw[3].pingApp[0] 	numLost:last 	-nan
attr interpolationmode  none
attr title  "pings lost, last"
statistic StaticHierarchical.gw[3].pingApp[0] 	rtt:histogram
field count 0
field mean -nan
field stddev -nan
field sum 0
field sqrsum 0
field min -nan
field max -nan
attr interpolationmode  none
attr title  "ping round-trip time, histogram"
attr unit  s
bin	-INF	0
bin	-0.5	0
bin	-0.46666666666667	0
bin	-0.43333333333333	0
bin	-0.4	0
bin	-0.36666666666667	0
bin	-0.33333333333333	0
bin	-0.3	0
bin	-0.26666666666667	0
bin	-0.23333333333333	0
bin	-0.2	0
bin	-0.16666666666667	0
bin	-0.13333333333333	0
bin	-0.1	0
bin	-0.066666666666667	0
bin	-0.033333333333333	0
bin	0	0
bin	0.033333333333333	0
bin	0.066666666666667	0
bin	0.1	0
bin	0.13333333333333	0
bin	0.16666666666667	0
bin	0.2	0
bin	0.23333333333333	0
bin	0.26666666666667	0
bin	0.3	0
bin	0.33333333333333	0
bin	0.36666666666667	0
bin	0.4	0
bin	0.43333333333333	0
bin	0.46666666666667	0
bin	0.5	0
scalar StaticHierarchical.gw[3].pingTestApp[0] 	numOutOfOrderArrivals:last 	-nan
attr interpolationmode  none
attr title  "ping out-of-order arrivals, last"
scalar StaticHierarchical.gw[3].pingTestApp[0] 	pingRxSeq:count 	0
attr interpolationmode  none
attr title  "ping rx seq, count"
scalar StaticHierarchical.gw[3].pingTestApp[0] 	pingTxSeq:count 	0
attr interpolationmode  none
attr title  "ping tx seq, count"
scalar StaticHierarchical.gw[3].pingTestApp[0] 	numLost:last 	-nan
attr interpolationmode  none
attr title  "pings lost, last"
statistic StaticHierarchical.gw[3].pingTestApp[0] 	rtt:histogram
field count 0
field mean -nan
field stddev -nan
field sum 0
field sqrsum 0
field min -nan
field max -nan
attr interpolationmode  none
attr title  "ping round-trip time, histogram"
attr unit  s
bin	-INF	0
bin	-0.5	0
bin	-0.46666666666667	0
bin	-0.43333333333333	0
bin	-0.4	0
bin	-0.36666666666667	0
bin	-0.33333333333333	0
bin	-0.3	0
bin	-0.26666666666667	0
bin	-0.23333333333333	0
bin	-0.2	0
bin	-0.16666666666667	0
bin	-0.13333333333333	0
bin	-0.1	0
bin	-0.066666666666667	0
bin	-0.033333333333333	0
bin	0	0
bin	0.033333333333333	0
bin	0.066666666666667	0
bin	0.1	0
bin	0.13333333333333	0
bin	0.16666666666667	0
bin	0.2	0
bin	0.23333333333333	0
bin	0.26666666666667	0
bin	0.3	0
bin	0.33333333333333	0
bin	0.36666666666667	0
bin	0.4	0
bin	0.43333333333333	0
bin	0.46666666666667	0
bin	0.5	0
scalar StaticHierarchical.gw[4].networkLayer.arp 	failedARPResolution:count 	0
attr title  "ARP failed resolutions, count"
scalar StaticHierarchical.gw[4].networkLayer.arp 	completedARPResolution:count 	83
attr title  "ARP completed resolutions, count"
scalar StaticHierarchical.gw[4].networkLayer.arp 	initiatedARPResolution:count 	36
attr title  "ARP initiated resolutions, count"
scalar StaticHierarchical.gw[4].networkLayer.arp 	sentReply:count 	8
attr title  "ARP replies sent, count"
scalar StaticHierarchical.gw[4].networkLayer.arp 	sentReq:count 	36
attr title  "ARP request sent, count"
scalar StaticHierarchical.gw[4].lo0.lo 	droppedPkBitError:count 	0
attr interpolationmode  none
attr source  dropPkBitError
attr title  "packets dropped/bit error, count"
scalar StaticHierarchical.gw[4].lo0.lo 	droppedPkBitError:sum(packetBytes) 	0
attr interpolationmode  none
attr source  dropPkBitError
attr title  "packets dropped/bit error, sum(packetBytes)"
scalar StaticHierarchical.gw[4].lo0.lo 	rcvdPkFromHL:count 	0
attr interpolationmode  none
attr source  packetReceivedFromUpper
attr title  "packets received from higher layer, count"
scalar StaticHierarchical.gw[4].lo0.lo 	rcvdPkFromHL:sum(packetBytes) 	0
attr interpolationmode  none
attr source  packetReceivedFromUpper
attr title  "packets received from higher layer, sum(packetBytes)"
scalar StaticHierarchical.gw[4].lo0.lo 	passedUpPk:count 	0
attr interpolationmode  none
attr source  packetSentToUpper
attr title  "packets passed to higher layer, count"
scalar StaticHierarchical.gw[4].lo0.lo 	passedUpPk:sum(packetBytes) 	0
attr interpolationmode  none
attr source  packetSentToUpper
attr title  "packets passed to higher layer, sum(packetBytes)"
scalar StaticHierarchical.gw[4].wlan[0].mgmt 	dataQueueLen:max 	1
attr interpolationmode  sample-hold
attr title  "data queue length, max"
scalar StaticHierarchical.gw[4].wlan[0].mgmt 	dataQueueLen:timeavg 	7.8342888888889e-06
attr interpolationmode  sample-hold
attr title  "data queue length, timeavg"
scalar StaticHierarchical.gw[4].wlan[0].mgmt 	dropPkByQueue:count 	0
attr interpolationmode  none
attr source  dropPkByQueue
attr title  "packets dropped by queue, count"
scalar StaticHierarchical.gw[4].wlan[0].mgmt 	dropPkByQueue:sum(packetBytes) 	0
attr interpolationmode  none
attr source  dropPkByQueue
attr title  "packets dropped by queue, sum(packetBytes)"
scalar StaticHierarchical.gw[4].wlan[0].mac 	"number of received packets" 	27647
scalar StaticHierarchical.gw[4].wlan[0].mac 	"number of collisions" 	2290
scalar StaticHierarchical.gw[4].wlan[0].mac 	"number of internal collisions" 	0
scalar StaticHierarchical.gw[4].wlan[0].mac 	"number of retry for AC 0" 	208
scalar StaticHierarchical.gw[4].wlan[0].mac 	"sent and received bits" 	41945600
scalar StaticHierarchical.gw[4].wlan[0].mac 	"sent packet within AC 0" 	27586
scalar StaticHierarchical.gw[4].wlan[0].mac 	"sent in TXOP " 	0
scalar StaticHierarchical.gw[4].wlan[0].mac 	"sentWithoutRetry AC 0" 	27447
scalar StaticHierarchical.gw[4].wlan[0].mac 	"numGivenUp AC 0" 	0
scalar StaticHierarchical.gw[4].wlan[0].mac 	"numDropped AC 0" 	0
scalar StaticHierarchical.gw[4].wlan[0].mac 	rcvdPkFromHL:count 	27616
attr interpolationmode  none
attr source  packetReceivedFromUpper
attr title  "packets received from higher layer, count"
scalar StaticHierarchical.gw[4].wlan[0].mac 	rcvdPkFromHL:sum(packetBytes) 	5243200
attr interpolationmode  none
attr source  packetReceivedFromUpper
attr title  "packets received from higher layer, sum(packetBytes)"
scalar StaticHierarchical.gw[4].wlan[0].mac 	passedUpPk:count 	27670
attr interpolationmode  none
attr source  packetSentToUpper
attr title  "packets passed to higher layer, count"
scalar StaticHierarchical.gw[4].wlan[0].mac 	passedUpPk:sum(packetBytes) 	5248420
attr interpolationmode  none
attr source  packetSentToUpper
attr title  "packets passed to higher layer, sum(packetBytes)"
scalar StaticHierarchical.gw[4].wlan[0].mac 	rcvdPkFromLL:count 	139252
attr interpolationmode  none
attr source  packetReceivedFromLower
attr title  "packets received from lower layer, count"
scalar StaticHierarchical.gw[4].wlan[0].mac 	rcvdPkFromLL:sum(packetBytes) 	14306792
attr interpolationmode  none
attr source  packetReceivedFromLower
attr title  "packets received from lower layer, sum(packetBytes)"
scalar StaticHierarchical.gw[4].wlan[0].mac 	sentDownPk:count 	55471
attr interpolationmode  none
attr source  packetSentToLower
attr title  "packets sent to lower layer, count"
scalar StaticHierarchical.gw[4].wlan[0].mac 	sentDownPk:sum(packetBytes) 	5669778
attr interpolationmode  none
attr source  packetSentToLower
attr title  "packets sent to lower layer, sum(packetBytes)"
scalar StaticHierarchical.gw[4].wlan[0].radio 	lossRate:min 	0
attr interpolationmode  backward-sample-hold
attr title  "packet loss rate, min"
scalar StaticHierarchical.gw[4].wlan[0].radio 	lossRate:max 	0.3
attr interpolationmode  backward-sample-hold
attr title  "packet loss rate, max"
scalar StaticHierarchical.gw[4].wlan[0].radio 	lossRate:timeavg 	0.016720557230428
attr interpolationmode  backward-sample-hold
attr title  "packet loss rate, timeavg"
statistic StaticHierarchical.gw[4].wlan[0].radio 	channelNo:histogram
field count 1
field mean 4
field stddev -nan
field sum 4
field sqrsum 16
field min 4
field max 4
attr interpolationmode  sample-hold
attr title  "channel no, histogram"
bin	-INF	0
bin	3	0
bin	4	1
bin	5	0
scalar StaticHierarchical.gw[4].wlan[0].radio 	bitrate:min 	11000000
attr interpolationmode  sample-hold
attr title  "tx bitrate, min"
attr unit  bps
scalar StaticHierarchical.gw[4].wlan[0].radio 	bitrate:max 	11000000
attr interpolationmode  sample-hold
attr title  "tx bitrate, max"
attr unit  bps
scalar StaticHierarchical.gw[4].wlan[0].radio 	bitrate:timeavg 	11000000
attr interpolationmode  sample-hold
attr title  "tx bitrate, timeavg"
attr unit  bps
scalar StaticHierarchical.gw[4].wlan[0].radio 	radioState:count 	388542
attr interpolationmode  sample-hold
attr title  "radio state (enum), count"
scalar StaticHierarchical.gw[4].wlan[1].mgmt 	dataQueueLen:max 	2
attr interpolationmode  sample-hold
attr title  "data queue length, max"
scalar StaticHierarchical.gw[4].wlan[1].mgmt 	dataQueueLen:timeavg 	0.00028821676111111
attr interpolationmode  sample-hold
attr title  "data queue length, timeavg"
scalar StaticHierarchical.gw[4].wlan[1].mgmt 	dropPkByQueue:count 	0
attr interpolationmode  none
attr source  dropPkByQueue
attr title  "packets dropped by queue, count"
scalar StaticHierarchical.gw[4].wlan[1].mgmt 	dropPkByQueue:sum(packetBytes) 	0
attr interpolationmode  none
attr source  dropPkByQueue
attr title  "packets dropped by queue, sum(packetBytes)"
scalar StaticHierarchical.gw[4].wlan[1].mac 	"number of received packets" 	23007
scalar StaticHierarchical.gw[4].wlan[1].mac 	"number of collisions" 	279
scalar StaticHierarchical.gw[4].wlan[1].mac 	"number of internal collisions" 	0
scalar StaticHierarchical.gw[4].wlan[1].mac 	"number of retry for AC 0" 	9338
scalar StaticHierarchical.gw[4].wlan[1].mac 	"sent and received bits" 	34953040
scalar StaticHierarchical.gw[4].wlan[1].mac 	"sent packet within AC 0" 	22997
scalar StaticHierarchical.gw[4].wlan[1].mac 	"sent in TXOP " 	0
scalar StaticHierarchical.gw[4].wlan[1].mac 	"sentWithoutRetry AC 0" 	19435
scalar StaticHierarchical.gw[4].wlan[1].mac 	"numGivenUp AC 0" 	7
scalar StaticHierarchical.gw[4].wlan[1].mac 	"numDropped AC 0" 	0
scalar StaticHierarchical.gw[4].wlan[1].mac 	rcvdPkFromHL:count 	23010
attr interpolationmode  none
attr source  packetReceivedFromUpper
attr title  "packets received from higher layer, count"
scalar StaticHierarchical.gw[4].wlan[1].mac 	rcvdPkFromHL:sum(packetBytes) 	4370460
attr interpolationmode  none
attr source  packetReceivedFromUpper
attr title  "packets received from higher layer, sum(packetBytes)"
scalar StaticHierarchical.gw[4].wlan[1].mac 	passedUpPk:count 	23004
attr interpolationmode  none
attr source  packetSentToUpper
attr title  "packets passed to higher layer, count"
scalar StaticHierarchical.gw[4].wlan[1].mac 	passedUpPk:sum(packetBytes) 	4368600
attr interpolationmode  none
attr source  packetSentToUpper
attr title  "packets passed to higher layer, sum(packetBytes)"
scalar StaticHierarchical.gw[4].wlan[1].mac 	rcvdPkFromLL:count 	96193
attr interpolationmode  none
attr source  packetReceivedFromLower
attr title  "packets received from lower layer, count"
scalar StaticHierarchical.gw[4].wlan[1].mac 	rcvdPkFromLL:sum(packetBytes) 	10179198
attr interpolationmode  none
attr source  packetReceivedFromLower
attr title  "packets received from lower layer, sum(packetBytes)"
scalar StaticHierarchical.gw[4].wlan[1].mac 	sentDownPk:count 	55355
attr interpolationmode  none
attr source  packetSentToLower
attr title  "packets sent to lower layer, count"
scalar StaticHierarchical.gw[4].wlan[1].mac 	sentDownPk:sum(packetBytes) 	6466778
attr interpolationmode  none
attr source  packetSentToLower
attr title  "packets sent to lower layer, sum(packetBytes)"
scalar StaticHierarchical.gw[4].wlan[1].radio 	lossRate:min 	0
attr interpolationmode  backward-sample-hold
attr title  "packet loss rate, min"
scalar StaticHierarchical.gw[4].wlan[1].radio 	lossRate:max 	0.08
attr interpolationmode  backward-sample-hold
attr title  "packet loss rate, max"
scalar StaticHierarchical.gw[4].wlan[1].radio 	lossRate:timeavg 	0.0028994999996374
attr interpolationmode  backward-sample-hold
attr title  "packet loss rate, timeavg"
statistic StaticHierarchical.gw[4].wlan[1].radio 	channelNo:histogram
field count 1
field mean 5
field stddev -nan
field sum 5
field sqrsum 25
field min 5
field max 5
attr interpolationmode  sample-hold
attr title  "channel no, histogram"
bin	-INF	0
bin	4	0
bin	5	1
bin	6	0
scalar StaticHierarchical.gw[4].wlan[1].radio 	bitrate:min 	11000000
attr interpolationmode  sample-hold
attr title  "tx bitrate, min"
attr unit  bps
scalar StaticHierarchical.gw[4].wlan[1].radio 	bitrate:max 	11000000
attr interpolationmode  sample-hold
attr title  "tx bitrate, max"
attr unit  bps
scalar StaticHierarchical.gw[4].wlan[1].radio 	bitrate:timeavg 	11000000
attr interpolationmode  sample-hold
attr title  "tx bitrate, timeavg"
attr unit  bps
scalar StaticHierarchical.gw[4].wlan[1].radio 	radioState:count 	303165
attr interpolationmode  sample-hold
attr title  "radio state (enum), count"
scalar StaticHierarchical.gw[4].udp 	droppedPkBadChecksum:count 	0
attr interpolationmode  none
attr title  "packets dropped (checksum error), count"
scalar StaticHierarchical.gw[4].udp 	droppedPkWrongPort:count 	0
attr interpolationmode  none
attr title  "packets dropped (wrong port), count"
scalar StaticHierarchical.gw[4].udp 	passedUpPk:count 	0
attr interpolationmode  none
attr title  "packets passed up, count"
scalar StaticHierarchical.gw[4].udp 	rcvdPk:count 	0
attr interpolationmode  none
attr source  rcvdPk
attr title  "packets received, count"
scalar StaticHierarchical.gw[4].udp 	rcvdPk:sum(packetBytes) 	0
attr interpolationmode  none
attr source  rcvdPk
attr title  "packets received, sum(packetBytes)"
scalar StaticHierarchical.gw[4].udp 	sentPk:count 	0
attr interpolationmode  none
attr source  sentPk
attr title  "packets sent, count"
scalar StaticHierarchical.gw[4].udp 	sentPk:sum(packetBytes) 	0
attr interpolationmode  none
attr source  sentPk
attr title  "packets sent, sum(packetBytes)"
scalar StaticHierarchical.gw[4].pingApp[0] 	numOutOfOrderArrivals:last 	-nan
attr interpolationmode  none
attr title  "ping out-of-order arrivals, last"
scalar StaticHierarchical.gw[4].pingApp[0] 	pingRxSeq:count 	0
attr interpolationmode  none
attr title  "ping rx seq, count"
scalar StaticHierarchical.gw[4].pingApp[0] 	pingTxSeq:count 	0
attr interpolationmode  none
attr title  "ping tx seq, count"
scalar StaticHierarchical.gw[4].pingApp[0] 	numLost:last 	-nan
attr interpolationmode  none
attr title  "pings lost, last"
statistic StaticHierarchical.gw[4].pingApp[0] 	rtt:histogram
field count 0
field mean -nan
field stddev -nan
field sum 0
field sqrsum 0
field min -nan
field max -nan
attr interpolationmode  none
attr title  "ping round-trip time, histogram"
attr unit  s
bin	-INF	0
bin	-0.5	0
bin	-0.46666666666667	0
bin	-0.43333333333333	0
bin	-0.4	0
bin	-0.36666666666667	0
bin	-0.33333333333333	0
bin	-0.3	0
bin	-0.26666666666667	0
bin	-0.23333333333333	0
bin	-0.2	0
bin	-0.16666666666667	0
bin	-0.13333333333333	0
bin	-0.1	0
bin	-0.066666666666667	0
bin	-0.033333333333333	0
bin	0	0
bin	0.033333333333333	0
bin	0.066666666666667	0
bin	0.1	0
bin	0.13333333333333	0
bin	0.16666666666667	0
bin	0.2	0
bin	0.23333333333333	0
bin	0.26666666666667	0
bin	0.3	0
bin	0.33333333333333	0
bin	0.36666666666667	0
bin	0.4	0
bin	0.43333333333333	0
bin	0.46666666666667	0
bin	0.5	0
scalar StaticHierarchical.gw[4].pingTestApp[0] 	numOutOfOrderArrivals:last 	-nan
attr interpolationmode  none
attr title  "ping out-of-order arrivals, last"
scalar StaticHierarchical.gw[4].pingTestApp[0] 	pingRxSeq:count 	0
attr interpolationmode  none
attr title  "ping rx seq, count"
scalar StaticHierarchical.gw[4].pingTestApp[0] 	pingTxSeq:count 	0
attr interpolationmode  none
attr title  "ping tx seq, count"
scalar StaticHierarchical.gw[4].pingTestApp[0] 	numLost:last 	-nan
attr interpolationmode  none
attr title  "pings lost, last"
statistic StaticHierarchical.gw[4].pingTestApp[0] 	rtt:histogram
field count 0
field mean -nan
field stddev -nan
field sum 0
field sqrsum 0
field min -nan
field max -nan
attr interpolationmode  none
attr title  "ping round-trip time, histogram"
attr unit  s
bin	-INF	0
bin	-0.5	0
bin	-0.46666666666667	0
bin	-0.43333333333333	0
bin	-0.4	0
bin	-0.36666666666667	0
bin	-0.33333333333333	0
bin	-0.3	0
bin	-0.26666666666667	0
bin	-0.23333333333333	0
bin	-0.2	0
bin	-0.16666666666667	0
bin	-0.13333333333333	0
bin	-0.1	0
bin	-0.066666666666667	0
bin	-0.033333333333333	0
bin	0	0
bin	0.033333333333333	0
bin	0.066666666666667	0
bin	0.1	0
bin	0.13333333333333	0
bin	0.16666666666667	0
bin	0.2	0
bin	0.23333333333333	0
bin	0.26666666666667	0
bin	0.3	0
bin	0.33333333333333	0
bin	0.36666666666667	0
bin	0.4	0
bin	0.43333333333333	0
bin	0.46666666666667	0
bin	0.5	0
scalar StaticHierarchical.host[0].networkLayer.arp 	failedARPResolution:count 	0
attr title  "ARP failed resolutions, count"
scalar StaticHierarchical.host[0].networkLayer.arp 	completedARPResolution:count 	11
attr title  "ARP completed resolutions, count"
scalar StaticHierarchical.host[0].networkLayer.arp 	initiatedARPResolution:count 	2
attr title  "ARP initiated resolutions, count"
scalar StaticHierarchical.host[0].networkLayer.arp 	sentReply:count 	4
attr title  "ARP replies sent, count"
scalar StaticHierarchical.host[0].networkLayer.arp 	sentReq:count 	2
attr title  "ARP request sent, count"
scalar StaticHierarchical.host[0].lo0.lo 	droppedPkBitError:count 	0
attr interpolationmode  none
attr source  dropPkBitError
attr title  "packets dropped/bit error, count"
scalar StaticHierarchical.host[0].lo0.lo 	droppedPkBitError:sum(packetBytes) 	0
attr interpolationmode  none
attr source  dropPkBitError
attr title  "packets dropped/bit error, sum(packetBytes)"
scalar StaticHierarchical.host[0].lo0.lo 	rcvdPkFromHL:count 	0
attr interpolationmode  none
attr source  packetReceivedFromUpper
attr title  "packets received from higher layer, count"
scalar StaticHierarchical.host[0].lo0.lo 	rcvdPkFromHL:sum(packetBytes) 	0
attr interpolationmode  none
attr source  packetReceivedFromUpper
attr title  "packets received from higher layer, sum(packetBytes)"
scalar StaticHierarchical.host[0].lo0.lo 	passedUpPk:count 	0
attr interpolationmode  none
attr source  packetSentToUpper
attr title  "packets passed to higher layer, count"
scalar StaticHierarchical.host[0].lo0.lo 	passedUpPk:sum(packetBytes) 	0
attr interpolationmode  none
attr source  packetSentToUpper
attr title  "packets passed to higher layer, sum(packetBytes)"
scalar StaticHierarchical.host[0].wlan[0].mgmt 	dataQueueLen:max 	0
attr interpolationmode  sample-hold
attr title  "data queue length, max"
scalar StaticHierarchical.host[0].wlan[0].mgmt 	dataQueueLen:timeavg 	0
attr interpolationmode  sample-hold
attr title  "data queue length, timeavg"
scalar StaticHierarchical.host[0].wlan[0].mgmt 	dropPkByQueue:count 	0
attr interpolationmode  none
attr source  dropPkByQueue
attr title  "packets dropped by queue, count"
scalar StaticHierarchical.host[0].wlan[0].mgmt 	dropPkByQueue:sum(packetBytes) 	0
attr interpolationmode  none
attr source  dropPkByQueue
attr title  "packets dropped by queue, sum(packetBytes)"
scalar StaticHierarchical.host[0].wlan[0].mac 	"number of received packets" 	4607
scalar StaticHierarchical.host[0].wlan[0].mac 	"number of collisions" 	1260
scalar StaticHierarchical.host[0].wlan[0].mac 	"number of internal collisions" 	0
scalar StaticHierarchical.host[0].wlan[0].mac 	"number of retry for AC 0" 	679
scalar StaticHierarchical.host[0].wlan[0].mac 	"sent and received bits" 	6998400
scalar StaticHierarchical.host[0].wlan[0].mac 	"sent packet within AC 0" 	4606
scalar StaticHierarchical.host[0].wlan[0].mac 	"sent in TXOP " 	0
scalar StaticHierarchical.host[0].wlan[0].mac 	"sentWithoutRetry AC 0" 	4342
scalar StaticHierarchical.host[0].wlan[0].mac 	"numGivenUp AC 0" 	0
scalar StaticHierarchical.host[0].wlan[0].mac 	"numDropped AC 0" 	0
scalar StaticHierarchical.host[0].wlan[0].mac 	rcvdPkFromHL:count 	4608
attr interpolationmode  none
attr source  packetReceivedFromUpper
attr title  "packets received from higher layer, count"
scalar StaticHierarchical.host[0].wlan[0].mac 	rcvdPkFromHL:sum(packetBytes) 	874800
attr interpolationmode  none
attr source  packetReceivedFromUpper
attr title  "packets received from higher layer, sum(packetBytes)"
scalar StaticHierarchical.host[0].wlan[0].mac 	passedUpPk:count 	4619
attr interpolationmode  none
attr source  packetSentToUpper
attr title  "packets passed to higher layer, count"
scalar StaticHierarchical.host[0].wlan[0].mac 	passedUpPk:sum(packetBytes) 	875210
attr interpolationmode  none
attr source  packetSentToUpper
attr title  "packets passed to higher layer, sum(packetBytes)"
scalar StaticHierarchical.host[0].wlan[0].mac 	rcvdPkFromLL:count 	57305
attr interpolationmode  none
attr source  packetReceivedFromLower
attr title  "packets received from lower layer, count"
scalar StaticHierarchical.host[0].wlan[0].mac 	rcvdPkFromLL:sum(packetBytes) 	6018750
attr interpolationmode  none
attr source  packetReceivedFromLower
attr title  "packets received from lower layer, sum(packetBytes)"
scalar StaticHierarchical.host[0].wlan[0].mac 	sentDownPk:count 	9894
attr interpolationmode  none
attr source  packetSentToLower
attr title  "packets sent to lower layer, count"
scalar StaticHierarchical.host[0].wlan[0].mac 	sentDownPk:sum(packetBytes) 	1068308
attr interpolationmode  none
attr source  packetSentToLower
attr title  "packets sent to lower layer, sum(packetBytes)"
scalar StaticHierarchical.host[0].wlan[0].radio 	lossRate:min 	0
attr interpolationmode  backward-sample-hold
attr title  "packet loss rate, min"
scalar StaticHierarchical.host[0].wlan[0].radio 	lossRate:max 	0.24
attr interpolationmode  backward-sample-hold
attr title  "packet loss rate, max"
scalar StaticHierarchical.host[0].wlan[0].radio 	lossRate:timeavg 	0.021710473857829
attr interpolationmode  backward-sample-hold
attr title  "packet loss rate, timeavg"
statistic StaticHierarchical.host[0].wlan[0].radio 	channelNo:histogram
field count 1
field mean 0
field stddev -nan
field sum 0
field sqrsum 0
field min 0
field max 0
attr interpolationmode  sample-hold
attr title  "channel no, histogram"
bin	-INF	0
bin	-0.5	0
bin	-0.46666666666667	0
bin	-0.43333333333333	0
bin	-0.4	0
bin	-0.36666666666667	0
bin	-0.33333333333333	0
bin	-0.3	0
bin	-0.26666666666667	0
bin	-0.23333333333333	0
bin	-0.2	0
bin	-0.16666666666667	0
bin	-0.13333333333333	0
bin	-0.1	0
bin	-0.066666666666667	0
bin	-0.033333333333333	0
bin	0	1
bin	0.033333333333333	0
bin	0.066666666666667	0
bin	0.1	0
bin	0.13333333333333	0
bin	0.16666666666667	0
bin	0.2	0
bin	0.23333333333333	0
bin	0.26666666666667	0
bin	0.3	0
bin	0.33333333333333	0
bin	0.36666666666667	0
bin	0.4	0
bin	0.43333333333333	0
bin	0.46666666666667	0
bin	0.5	0
scalar StaticHierarchical.host[0].wlan[0].radio 	bitrate:min 	11000000
attr interpolationmode  sample-hold
attr title  "tx bitrate, min"
attr unit  bps
scalar StaticHierarchical.host[0].wlan[0].radio 	bitrate:max 	11000000
attr interpolationmode  sample-hold
attr title  "tx bitrate, max"
attr unit  bps
scalar StaticHierarchical.host[0].wlan[0].radio 	bitrate:timeavg 	11000000
attr interpolationmode  sample-hold
attr title  "tx bitrate, timeavg"
attr unit  bps
scalar StaticHierarchical.host[0].wlan[0].radio 	radioState:count 	134681
attr interpolationmode  sample-hold
attr title  "radio state (enum), count"
scalar StaticHierarchical.host[0].pingApp[0] 	numOutOfOrderArrivals:last 	-nan
attr interpolationmode  none
attr title  "ping out-of-order arrivals, last"
scalar StaticHierarchical.host[0].pingApp[0] 	pingRxSeq:count 	0
attr interpolationmode  none
attr title  "ping rx seq, count"
scalar StaticHierarchical.host[0].pingApp[0] 	pingTxSeq:count 	0
attr interpolationmode  none
attr title  "ping tx seq, count"
scalar StaticHierarchical.host[0].pingApp[0] 	numLost:last 	-nan
attr interpolationmode  none
attr title  "pings lost, last"
statistic StaticHierarchical.host[0].pingApp[0] 	rtt:histogram
field count 0
field mean -nan
field stddev -nan
field sum 0
field sqrsum 0
field min -nan
field max -nan
attr interpolationmode  none
attr title  "ping round-trip time, histogram"
attr unit  s
bin	-INF	0
bin	-0.5	0
bin	-0.46666666666667	0
bin	-0.43333333333333	0
bin	-0.4	0
bin	-0.36666666666667	0
bin	-0.33333333333333	0
bin	-0.3	0
bin	-0.26666666666667	0
bin	-0.23333333333333	0
bin	-0.2	0
bin	-0.16666666666667	0
bin	-0.13333333333333	0
bin	-0.1	0
bin	-0.066666666666667	0
bin	-0.033333333333333	0
bin	0	0
bin	0.033333333333333	0
bin	0.066666666666667	0
bin	0.1	0
bin	0.13333333333333	0
bin	0.16666666666667	0
bin	0.2	0
bin	0.23333333333333	0
bin	0.26666666666667	0
bin	0.3	0
bin	0.33333333333333	0
bin	0.36666666666667	0
bin	0.4	0
bin	0.43333333333333	0
bin	0.46666666666667	0
bin	0.5	0
scalar StaticHierarchical.host[0].pingTestApp[0] 	"Pings sent" 	2301
scalar StaticHierarchical.host[0].pingTestApp[0] 	"ping loss rate (%)" 	0.13037809647979
scalar StaticHierarchical.host[0].pingTestApp[0] 	"ping out-of-order rate (%)" 	0
scalar StaticHierarchical.host[0].pingTestApp[0] 	numOutOfOrderArrivals:last 	-nan
[...]
attr title  "pings lost, last"
statistic StaticHierarchical.host[17].pingTestApp[0] 	rtt:histogram
field count 2299
field mean 0.01096877915833
field stddev 0.018975891226646
field sum 25.217223285001
field sqrsum 1.1040762143484
field min 0.008169292
field max 0.89246843
attr interpolationmode  none
attr title  "ping round-trip time, histogram"
attr unit  s
bin	-INF	0
bin	-0.433980277	0
bin	-0.37502700113333	0
bin	-0.31607372526667	0
bin	-0.2571204494	0
bin	-0.19816717353333	0
bin	-0.13921389766667	0
bin	-0.0802606218	0
bin	-0.021307345933333	2296
bin	0.037645929933333	2
bin	0.0965992058	0
bin	0.15555248166667	0
bin	0.21450575753333	0
bin	0.2734590334	0
bin	0.33241230926667	0
bin	0.39136558513333	0
bin	0.450318861	0
bin	0.50927213686667	0
bin	0.56822541273333	0
bin	0.6271786886	0
bin	0.68613196446667	0
bin	0.74508524033333	0
bin	0.8040385162	0
bin	0.86299179206667	1
bin	0.92194506793333	0
bin	0.9808983438	0
bin	1.0398516196667	0
bin	1.0988048955333	0
bin	1.1577581714	0
bin	1.2167114472667	0
bin	1.2756647231333	0
bin	1.334617999	0
scalar StaticHierarchical.host[18].networkLayer.arp 	failedARPResolution:count 	0
attr title  "ARP failed resolutions, count"
scalar StaticHierarchical.host[18].networkLayer.arp 	completedARPResolution:count 	13
attr title  "ARP completed resolutions, count"
scalar StaticHierarchical.host[18].networkLayer.arp 	initiatedARPResolution:count 	0
attr title  "ARP initiated resolutions, count"
scalar StaticHierarchical.host[18].networkLayer.arp 	sentReply:count 	6
attr title  "ARP replies sent, count"
scalar StaticHierarchical.host[18].networkLayer.arp 	sentReq:count 	0
attr title  "ARP request sent, count"
scalar StaticHierarchical.host[18].lo0.lo 	droppedPkBitError:count 	0
attr interpolationmode  none
attr source  dropPkBitError
attr title  "packets dropped/bit error, count"
scalar StaticHierarchical.host[18].lo0.lo 	droppedPkBitError:sum(packetBytes) 	0
attr interpolationmode  none
attr source  dropPkBitError
attr title  "packets dropped/bit error, sum(packetBytes)"
scalar StaticHierarchical.host[18].lo0.lo 	rcvdPkFromHL:count 	0
attr interpolationmode  none
attr source  packetReceivedFromUpper
attr title  "packets received from higher layer, count"
scalar StaticHierarchical.host[18].lo0.lo 	rcvdPkFromHL:sum(packetBytes) 	0
attr interpolationmode  none
attr source  packetReceivedFromUpper
attr title  "packets received from higher layer, sum(packetBytes)"
scalar StaticHierarchical.host[18].lo0.lo 	passedUpPk:count 	0
attr interpolationmode  none
attr source  packetSentToUpper
attr title  "packets passed to higher layer, count"
scalar StaticHierarchical.host[18].lo0.lo 	passedUpPk:sum(packetBytes) 	0
attr interpolationmode  none
attr source  packetSentToUpper
attr title  "packets passed to higher layer, sum(packetBytes)"
scalar StaticHierarchical.host[18].wlan[0].mgmt 	dataQueueLen:max 	0
attr interpolationmode  sample-hold
attr title  "data queue length, max"
scalar StaticHierarchical.host[18].wlan[0].mgmt 	dataQueueLen:timeavg 	0
attr interpolationmode  sample-hold
attr title  "data queue length, timeavg"
scalar StaticHierarchical.host[18].wlan[0].mgmt 	dropPkByQueue:count 	0
attr interpolationmode  none
attr source  dropPkByQueue
attr title  "packets dropped by queue, count"
scalar StaticHierarchical.host[18].wlan[0].mgmt 	dropPkByQueue:sum(packetBytes) 	0
attr interpolationmode  none
attr source  dropPkByQueue
attr title  "packets dropped by queue, sum(packetBytes)"
scalar StaticHierarchical.host[18].wlan[0].mac 	"number of received packets" 	4622
scalar StaticHierarchical.host[18].wlan[0].mac 	"number of collisions" 	1812
scalar StaticHierarchical.host[18].wlan[0].mac 	"number of internal collisions" 	0
scalar StaticHierarchical.host[18].wlan[0].mac 	"number of retry for AC 0" 	188
scalar StaticHierarchical.host[18].wlan[0].mac 	"sent and received bits" 	6995360
scalar StaticHierarchical.host[18].wlan[0].mac 	"sent packet within AC 0" 	4606
scalar StaticHierarchical.host[18].wlan[0].mac 	"sent in TXOP " 	0
scalar StaticHierarchical.host[18].wlan[0].mac 	"sentWithoutRetry AC 0" 	4520
scalar StaticHierarchical.host[18].wlan[0].mac 	"numGivenUp AC 0" 	0
scalar StaticHierarchical.host[18].wlan[0].mac 	"numDropped AC 0" 	0
scalar StaticHierarchical.host[18].wlan[0].mac 	rcvdPkFromHL:count 	4606
attr interpolationmode  none
attr source  packetReceivedFromUpper
attr title  "packets received from higher layer, count"
scalar StaticHierarchical.host[18].wlan[0].mac 	rcvdPkFromHL:sum(packetBytes) 	874420
attr interpolationmode  none
attr source  packetReceivedFromUpper
attr title  "packets received from higher layer, sum(packetBytes)"
scalar StaticHierarchical.host[18].wlan[0].mac 	passedUpPk:count 	4666
attr interpolationmode  none
attr source  packetSentToUpper
attr title  "packets passed to higher layer, count"
scalar StaticHierarchical.host[18].wlan[0].mac 	passedUpPk:sum(packetBytes) 	878380
attr interpolationmode  none
attr source  packetSentToUpper
attr title  "packets passed to higher layer, sum(packetBytes)"
scalar StaticHierarchical.host[18].wlan[0].mac 	rcvdPkFromLL:count 	149170
attr interpolationmode  none
attr source  packetReceivedFromLower
attr title  "packets received from lower layer, count"
scalar StaticHierarchical.host[18].wlan[0].mac 	rcvdPkFromLL:sum(packetBytes) 	15357916
attr interpolationmode  none
attr source  packetReceivedFromLower
attr title  "packets received from lower layer, sum(packetBytes)"
scalar StaticHierarchical.host[18].wlan[0].mac 	sentDownPk:count 	9416
attr interpolationmode  none
attr source  packetSentToLower
attr title  "packets sent to lower layer, count"
scalar StaticHierarchical.host[18].wlan[0].mac 	sentDownPk:sum(packetBytes) 	974848
attr interpolationmode  none
attr source  packetSentToLower
attr title  "packets sent to lower layer, sum(packetBytes)"
scalar StaticHierarchical.host[18].wlan[0].radio 	lossRate:min 	0
attr interpolationmode  backward-sample-hold
attr title  "packet loss rate, min"
scalar StaticHierarchical.host[18].wlan[0].radio 	lossRate:max 	0.2
attr interpolationmode  backward-sample-hold
attr title  "packet loss rate, max"
scalar StaticHierarchical.host[18].wlan[0].radio 	lossRate:timeavg 	0.012096768952685
attr interpolationmode  backward-sample-hold
attr title  "packet loss rate, timeavg"
statistic StaticHierarchical.host[18].wlan[0].radio 	channelNo:histogram
field count 1
field mean 4
field stddev -nan
field sum 4
field sqrsum 16
field min 4
field max 4
attr interpolationmode  sample-hold
attr title  "channel no, histogram"
bin	-INF	0
bin	3	0
bin	4	1
bin	5	0
scalar StaticHierarchical.host[18].wlan[0].radio 	bitrate:min 	11000000
attr interpolationmode  sample-hold
attr title  "tx bitrate, min"
attr unit  bps
scalar StaticHierarchical.host[18].wlan[0].radio 	bitrate:max 	11000000
attr interpolationmode  sample-hold
attr title  "tx bitrate, max"
attr unit  bps
scalar StaticHierarchical.host[18].wlan[0].radio 	bitrate:timeavg 	11000000
attr interpolationmode  sample-hold
attr title  "tx bitrate, timeavg"
attr unit  bps
scalar StaticHierarchical.host[18].wlan[0].radio 	radioState:count 	317095
attr interpolationmode  sample-hold
attr title  "radio state (enum), count"
scalar StaticHierarchical.host[18].pingApp[0] 	numOutOfOrderArrivals:last 	-nan
attr interpolationmode  none
attr title  "ping out-of-order arrivals, last"
scalar StaticHierarchical.host[18].pingApp[0] 	pingRxSeq:count 	0
attr interpolationmode  none
attr title  "ping rx seq, count"
scalar StaticHierarchical.host[18].pingApp[0] 	pingTxSeq:count 	0
attr interpolationmode  none
attr title  "ping tx seq, count"
scalar StaticHierarchical.host[18].pingApp[0] 	numLost:last 	-nan
attr interpolationmode  none
attr title  "pings lost, last"
statistic StaticHierarchical.host[18].pingApp[0] 	rtt:histogram
field count 0
field mean -nan
field stddev -nan
field sum 0
field sqrsum 0
field min -nan
field max -nan
attr interpolationmode  none
attr title  "ping round-trip time, histogram"
attr unit  s
bin	-INF	0
bin	-0.5	0
bin	-0.46666666666667	0
bin	-0.43333333333333	0
bin	-0.4	0
bin	-0.36666666666667	0
bin	-0.33333333333333	0
bin	-0.3	0
bin	-0.26666666666667	0
bin	-0.23333333333333	0
bin	-0.2	0
bin	-0.16666666666667	0
bin	-0.13333333333333	0
bin	-0.1	0
bin	-0.066666666666667	0
bin	-0.033333333333333	0
bin	0	0
bin	0.033333333333333	0
bin	0.066666666666667	0
bin	0.1	0
bin	0.13333333333333	0
bin	0.16666666666667	0
bin	0.2	0
bin	0.23333333333333	0
bin	0.26666666666667	0
bin	0.3	0
bin	0.33333333333333	0
bin	0.36666666666667	0
bin	0.4	0
bin	0.43333333333333	0
bin	0.46666666666667	0
bin	0.5	0
scalar StaticHierarchical.host[18].pingTestApp[0] 	"Pings sent" 	2301
scalar StaticHierarchical.host[18].pingTestApp[0] 	"ping loss rate (%)" 	0.086918730986528
scalar StaticHierarchical.host[18].pingTestApp[0] 	"ping out-of-order rate (%)" 	0
scalar StaticHierarchical.host[18].pingTestApp[0] 	numOutOfOrderArrivals:last 	-nan
attr interpolationmode  none
attr title  "ping out-of-order arrivals, last"
scalar StaticHierarchical.host[18].pingTestApp[0] 	pingRxSeq:count 	2299
attr interpolationmode  none
attr title  "ping rx seq, count"
scalar StaticHierarchical.host[18].pingTestApp[0] 	pingTxSeq:count 	2301
attr interpolationmode  none
attr title  "ping tx seq, count"
scalar StaticHierarchical.host[18].pingTestApp[0] 	numLost:last 	2
attr interpolationmode  none
attr title  "pings lost, last"
statistic StaticHierarchical.host[18].pingTestApp[0] 	rtt:histogram
field count 2299
field mean 0.011291590994345
field stddev 0.018743115273884
field sum 25.959367695999
field sqrsum 1.1004200051459
field min 0.008129862
field max 0.878771777
attr interpolationmode  none
attr title  "ping round-trip time, histogram"
attr unit  s
bin	-INF	0
bin	-0.4271453275	0
bin	-0.3691045673	0
bin	-0.3110638071	0
bin	-0.2530230469	0
bin	-0.1949822867	0
bin	-0.1369415265	0
bin	-0.0789007663	0
bin	-0.0208600061	2294
bin	0.0371807541	4
bin	0.0952215143	0
bin	0.1532622745	0
bin	0.2113030347	0
bin	0.2693437949	0
bin	0.3273845551	0
bin	0.3854253153	0
bin	0.4434660755	0
bin	0.5015068357	0
bin	0.5595475959	0
bin	0.6175883561	0
bin	0.6756291163	0
bin	0.7336698765	0
bin	0.7917106367	0
bin	0.8497513969	1
bin	0.9077921571	0
bin	0.9658329173	0
bin	1.0238736775	0
bin	1.0819144377	0
bin	1.1399551979	0
bin	1.1979959581	0
bin	1.2560367183	0
bin	1.3140774785	0
scalar StaticHierarchical.host[19].networkLayer.arp 	failedARPResolution:count 	0
attr title  "ARP failed resolutions, count"
scalar StaticHierarchical.host[19].networkLayer.arp 	completedARPResolution:count 	12
attr title  "ARP completed resolutions, count"
scalar StaticHierarchical.host[19].networkLayer.arp 	initiatedARPResolution:count 	7
attr title  "ARP initiated resolutions, count"
scalar StaticHierarchical.host[19].networkLayer.arp 	sentReply:count 	5
attr title  "ARP replies sent, count"
scalar StaticHierarchical.host[19].networkLayer.arp 	sentReq:count 	7
attr title  "ARP request sent, count"
scalar StaticHierarchical.host[19].lo0.lo 	droppedPkBitError:count 	0
attr interpolationmode  none
attr source  dropPkBitError
attr title  "packets dropped/bit error, count"
scalar StaticHierarchical.host[19].lo0.lo 	droppedPkBitError:sum(packetBytes) 	0
attr interpolationmode  none
attr source  dropPkBitError
attr title  "packets dropped/bit error, sum(packetBytes)"
scalar StaticHierarchical.host[19].lo0.lo 	rcvdPkFromHL:count 	0
attr interpolationmode  none
attr source  packetReceivedFromUpper
attr title  "packets received from higher layer, count"
scalar StaticHierarchical.host[19].lo0.lo 	rcvdPkFromHL:sum(packetBytes) 	0
attr interpolationmode  none
attr source  packetReceivedFromUpper
attr title  "packets received from higher layer, sum(packetBytes)"
scalar StaticHierarchical.host[19].lo0.lo 	passedUpPk:count 	0
attr interpolationmode  none
attr source  packetSentToUpper
attr title  "packets passed to higher layer, count"
scalar StaticHierarchical.host[19].lo0.lo 	passedUpPk:sum(packetBytes) 	0
attr interpolationmode  none
attr source  packetSentToUpper
attr title  "packets passed to higher layer, sum(packetBytes)"
scalar StaticHierarchical.host[19].wlan[0].mgmt 	dataQueueLen:max 	0
attr interpolationmode  sample-hold
attr title  "data queue length, max"
scalar StaticHierarchical.host[19].wlan[0].mgmt 	dataQueueLen:timeavg 	0
attr interpolationmode  sample-hold
attr title  "data queue length, timeavg"
scalar StaticHierarchical.host[19].wlan[0].mgmt 	dropPkByQueue:count 	0
attr interpolationmode  none
attr source  dropPkByQueue
attr title  "packets dropped by queue, count"
scalar StaticHierarchical.host[19].wlan[0].mgmt 	dropPkByQueue:sum(packetBytes) 	0
attr interpolationmode  none
attr source  dropPkByQueue
attr title  "packets dropped by queue, sum(packetBytes)"
scalar StaticHierarchical.host[19].wlan[0].mac 	"number of received packets" 	4602
scalar StaticHierarchical.host[19].wlan[0].mac 	"number of collisions" 	0
scalar StaticHierarchical.host[19].wlan[0].mac 	"number of internal collisions" 	0
scalar StaticHierarchical.host[19].wlan[0].mac 	"number of retry for AC 0" 	66
scalar StaticHierarchical.host[19].wlan[0].mac 	"sent and received bits" 	6994160
scalar StaticHierarchical.host[19].wlan[0].mac 	"sent packet within AC 0" 	4602
scalar StaticHierarchical.host[19].wlan[0].mac 	"sent in TXOP " 	0
scalar StaticHierarchical.host[19].wlan[0].mac 	"sentWithoutRetry AC 0" 	4552
scalar StaticHierarchical.host[19].wlan[0].mac 	"numGivenUp AC 0" 	0
scalar StaticHierarchical.host[19].wlan[0].mac 	"numDropped AC 0" 	0
scalar StaticHierarchical.host[19].wlan[0].mac 	rcvdPkFromHL:count 	4609
attr interpolationmode  none
attr source  packetReceivedFromUpper
attr title  "packets received from higher layer, count"
scalar StaticHierarchical.host[19].wlan[0].mac 	rcvdPkFromHL:sum(packetBytes) 	874270
attr interpolationmode  none
attr source  packetReceivedFromUpper
attr title  "packets received from higher layer, sum(packetBytes)"
scalar StaticHierarchical.host[19].wlan[0].mac 	passedUpPk:count 	4607
attr interpolationmode  none
attr source  packetSentToUpper
attr title  "packets passed to higher layer, count"
scalar StaticHierarchical.host[19].wlan[0].mac 	passedUpPk:sum(packetBytes) 	873890
attr interpolationmode  none
attr source  packetSentToUpper
attr title  "packets passed to higher layer, sum(packetBytes)"
scalar StaticHierarchical.host[19].wlan[0].mac 	rcvdPkFromLL:count 	28874
attr interpolationmode  none
attr source  packetReceivedFromLower
attr title  "packets received from lower layer, count"
scalar StaticHierarchical.host[19].wlan[0].mac 	rcvdPkFromLL:sum(packetBytes) 	3052684
attr interpolationmode  none
attr source  packetReceivedFromLower
attr title  "packets received from lower layer, sum(packetBytes)"
scalar StaticHierarchical.host[19].wlan[0].mac 	sentDownPk:count 	9277
attr interpolationmode  none
attr source  packetSentToLower
attr title  "packets sent to lower layer, count"
scalar StaticHierarchical.host[19].wlan[0].mac 	sentDownPk:sum(packetBytes) 	951238
attr interpolationmode  none
attr source  packetSentToLower
attr title  "packets sent to lower layer, sum(packetBytes)"
scalar StaticHierarchical.host[19].wlan[0].radio 	lossRate:min 	0
attr interpolationmode  backward-sample-hold
attr title  "packet loss rate, min"
scalar StaticHierarchical.host[19].wlan[0].radio 	lossRate:max 	0
attr interpolationmode  backward-sample-hold
attr title  "packet loss rate, max"
scalar StaticHierarchical.host[19].wlan[0].radio 	lossRate:timeavg 	0
attr interpolationmode  backward-sample-hold
attr title  "packet loss rate, timeavg"
statistic StaticHierarchical.host[19].wlan[0].radio 	channelNo:histogram
field count 1
field mean 4
field stddev -nan
field sum 4
field sqrsum 16
field min 4
field max 4
attr interpolationmode  sample-hold
attr title  "channel no, histogram"
bin	-INF	0
bin	3	0
bin	4	1
bin	5	0
scalar StaticHierarchical.host[19].wlan[0].radio 	bitrate:min 	11000000
attr interpolationmode  sample-hold
attr title  "tx bitrate, min"
attr unit  bps
scalar StaticHierarchical.host[19].wlan[0].radio 	bitrate:max 	11000000
attr interpolationmode  sample-hold
attr title  "tx bitrate, max"
attr unit  bps
scalar StaticHierarchical.host[19].wlan[0].radio 	bitrate:timeavg 	11000000
attr interpolationmode  sample-hold
attr title  "tx bitrate, timeavg"
attr unit  bps
scalar StaticHierarchical.host[19].wlan[0].radio 	radioState:count 	76969
attr interpolationmode  sample-hold
attr title  "radio state (enum), count"
scalar StaticHierarchical.host[19].pingApp[0] 	numOutOfOrderArrivals:last 	-nan
attr interpolationmode  none
attr title  "ping out-of-order arrivals, last"
scalar StaticHierarchical.host[19].pingApp[0] 	pingRxSeq:count 	0
attr interpolationmode  none
attr title  "ping rx seq, count"
scalar StaticHierarchical.host[19].pingApp[0] 	pingTxSeq:count 	0
attr interpolationmode  none
attr title  "ping tx seq, count"
scalar StaticHierarchical.host[19].pingApp[0] 	numLost:last 	-nan
attr interpolationmode  none
attr title  "pings lost, last"
statistic StaticHierarchical.host[19].pingApp[0] 	rtt:histogram
field count 0
field mean -nan
field stddev -nan
field sum 0
field sqrsum 0
field min -nan
field max -nan
attr interpolationmode  none
attr title  "ping round-trip time, histogram"
attr unit  s
bin	-INF	0
bin	-0.5	0
bin	-0.46666666666667	0
bin	-0.43333333333333	0
bin	-0.4	0
bin	-0.36666666666667	0
bin	-0.33333333333333	0
bin	-0.3	0
bin	-0.26666666666667	0
bin	-0.23333333333333	0
bin	-0.2	0
bin	-0.16666666666667	0
bin	-0.13333333333333	0
bin	-0.1	0
bin	-0.066666666666667	0
bin	-0.033333333333333	0
bin	0	0
bin	0.033333333333333	0
bin	0.066666666666667	0
bin	0.1	0
bin	0.13333333333333	0
bin	0.16666666666667	0
bin	0.2	0
bin	0.23333333333333	0
bin	0.26666666666667	0
bin	0.3	0
bin	0.33333333333333	0
bin	0.36666666666667	0
bin	0.4	0
bin	0.43333333333333	0
bin	0.46666666666667	0
bin	0.5	0
scalar StaticHierarchical.host[19].pingTestApp[0] 	"Pings sent" 	2297
scalar StaticHierarchical.host[19].pingTestApp[0] 	"ping loss rate (%)" 	0.087070091423596
scalar StaticHierarchical.host[19].pingTestApp[0] 	"ping out-of-order rate (%)" 	0
scalar StaticHierarchical.host[19].pingTestApp[0] 	numOutOfOrderArrivals:last 	-nan
attr interpolationmode  none
attr title  "ping out-of-order arrivals, last"
scalar StaticHierarchical.host[19].pingTestApp[0] 	pingRxSeq:count 	2295
attr interpolationmode  none
attr title  "ping rx seq, count"
scalar StaticHierarchical.host[19].pingTestApp[0] 	pingTxSeq:count 	2297
attr interpolationmode  none
attr title  "ping tx seq, count"
scalar StaticHierarchical.host[19].pingTestApp[0] 	numLost:last 	2
attr interpolationmode  none
attr title  "pings lost, last"
statistic StaticHierarchical.host[19].pingTestApp[0] 	rtt:histogram
field count 2295
field mean 0.012503490573856
field stddev 0.018482206663926
field sum 28.695510867
field sqrsum 1.142406013145
field min 0.009559502
field max 0.870977749
attr interpolationmode  none
attr title  "ping round-trip time, histogram"
attr unit  s
bin	-INF	0
bin	-0.4211496215	0
bin	-0.36372173836667	0
bin	-0.30629385523333	0
bin	-0.2488659721	0
bin	-0.19143808896667	0
bin	-0.13401020583333	0
bin	-0.0765823227	0
bin	-0.019154439566667	2293
bin	0.038273443566667	1
bin	0.0957013267	0
bin	0.15312920983333	0
bin	0.21055709296667	0
bin	0.2679849761	0
bin	0.32541285923333	0
bin	0.38284074236667	0
bin	0.4402686255	0
bin	0.49769650863333	0
bin	0.55512439176667	0
bin	0.6125522749	0
bin	0.66998015803333	0
bin	0.72740804116667	0
bin	0.7848359243	0
bin	0.84226380743333	1
bin	0.89969169056667	0
bin	0.9571195737	0
bin	1.0145474568333	0
bin	1.0719753399667	0
bin	1.1294032231	0
bin	1.1868311062333	0
bin	1.2442589893667	0
bin	1.3016868725	0
scalar StaticHierarchical.globalObserver.globalStatistics 	"GlobalStatistics: Simulation Time" 	900
scalar StaticHierarchical.globalObserver.globalStatistics 	"Vector: GlobalDhtTestMap: Number of stored DHT entries.mean" 	0
scalar StaticHierarchical.globalObserver.globalStatistics 	"Vector: GlobalNodeList: Number of nodes.mean" 	0
