version 2
run OneCluster-0-20190326-13:17:52-8791
attr configname OneCluster
attr datetime 20190326-13:17:52
attr experiment OneCluster
attr inifile Flooding.ini
attr iterationvars ""
attr iterationvars2 $repetition=0
attr measurement ""
attr network p2psipmanet.simulations.Silas.Flooding
attr processid 8791
attr repetition 0
attr replication #0
attr resultdir results
attr runnumber 0
attr seedset 4

scalar Flooding.host[0].networkLayer.arp 	failedARPResolution:count 	0
attr title  "ARP failed resolutions, count"
scalar Flooding.host[0].networkLayer.arp 	completedARPResolution:count 	17
attr title  "ARP completed resolutions, count"
scalar Flooding.host[0].networkLayer.arp 	initiatedARPResolution:count 	7
attr title  "ARP initiated resolutions, count"
scalar Flooding.host[0].networkLayer.arp 	sentReply:count 	5
attr title  "ARP replies sent, count"
scalar Flooding.host[0].networkLayer.arp 	sentReq:count 	8
attr title  "ARP request sent, count"
scalar Flooding.host[0].lo0.lo 	droppedPkBitError:count 	0
attr interpolationmode  none
attr source  dropPkBitError
attr title  "packets dropped/bit error, count"
scalar Flooding.host[0].lo0.lo 	droppedPkBitError:sum(packetBytes) 	0
attr interpolationmode  none
attr source  dropPkBitError
attr title  "packets dropped/bit error, sum(packetBytes)"
scalar Flooding.host[0].lo0.lo 	rcvdPkFromHL:count 	0
attr interpolationmode  none
attr source  packetReceivedFromUpper
attr title  "packets received from higher layer, count"
scalar Flooding.host[0].lo0.lo 	rcvdPkFromHL:sum(packetBytes) 	0
attr interpolationmode  none
attr source  packetReceivedFromUpper
attr title  "packets received from higher layer, sum(packetBytes)"
scalar Flooding.host[0].lo0.lo 	passedUpPk:count 	0
attr interpolationmode  none
attr source  packetSentToUpper
attr title  "packets passed to higher layer, count"
scalar Flooding.host[0].lo0.lo 	passedUpPk:sum(packetBytes) 	0
attr interpolationmode  none
attr source  packetSentToUpper
attr title  "packets passed to higher layer, sum(packetBytes)"
scalar Flooding.host[0].wlan[0].mgmt 	dataQueueLen:max 	2
attr interpolationmode  sample-hold
attr title  "data queue length, max"
scalar Flooding.host[0].wlan[0].mgmt 	dataQueueLen:timeavg 	1.9322090993884e-05
attr interpolationmode  sample-hold
attr title  "data queue length, timeavg"
scalar Flooding.host[0].wlan[0].mgmt 	dropPkByQueue:count 	0
attr interpolationmode  none
attr source  dropPkByQueue
attr title  "packets dropped by queue, count"
scalar Flooding.host[0].wlan[0].mgmt 	dropPkByQueue:sum(packetBytes) 	0
attr interpolationmode  none
attr source  dropPkByQueue
attr title  "packets dropped by queue, sum(packetBytes)"
scalar Flooding.host[0].wlan[0].mac 	"number of received packets" 	4607
scalar Flooding.host[0].wlan[0].mac 	"number of collisions" 	558
scalar Flooding.host[0].wlan[0].mac 	"number of internal collisions" 	0
scalar Flooding.host[0].wlan[0].mac 	"number of retry for AC 0" 	301
scalar Flooding.host[0].wlan[0].mac 	"sent and received bits" 	8046928
scalar Flooding.host[0].wlan[0].mac 	"sent packet within AC 0" 	4603
scalar Flooding.host[0].wlan[0].mac 	"sent in TXOP " 	0
scalar Flooding.host[0].wlan[0].mac 	"sentWithoutRetry AC 0" 	4471
scalar Flooding.host[0].wlan[0].mac 	"numGivenUp AC 0" 	1
scalar Flooding.host[0].wlan[0].mac 	"numDropped AC 0" 	0
scalar Flooding.host[0].wlan[0].mac 	rcvdPkFromHL:count 	5262
attr interpolationmode  none
attr source  packetReceivedFromUpper
attr title  "packets received from higher layer, count"
scalar Flooding.host[0].wlan[0].mac 	rcvdPkFromHL:sum(packetBytes) 	1006056
attr interpolationmode  none
attr source  packetReceivedFromUpper
attr title  "packets received from higher layer, sum(packetBytes)"
scalar Flooding.host[0].wlan[0].mac 	passedUpPk:count 	28505
attr interpolationmode  none
attr source  packetSentToUpper
attr title  "packets passed to higher layer, count"
scalar Flooding.host[0].wlan[0].mac 	passedUpPk:sum(packetBytes) 	5724126
attr interpolationmode  none
attr source  packetSentToUpper
attr title  "packets passed to higher layer, sum(packetBytes)"
scalar Flooding.host[0].wlan[0].mac 	rcvdPkFromLL:count 	266160
attr interpolationmode  none
attr source  packetReceivedFromLower
attr title  "packets received from lower layer, count"
scalar Flooding.host[0].wlan[0].mac 	rcvdPkFromLL:sum(packetBytes) 	29799524
attr interpolationmode  none
attr source  packetReceivedFromLower
attr title  "packets received from lower layer, sum(packetBytes)"
scalar Flooding.host[0].wlan[0].mac 	sentDownPk:count 	10170
attr interpolationmode  none
attr source  packetSentToLower
attr title  "packets sent to lower layer, count"
scalar Flooding.host[0].wlan[0].mac 	sentDownPk:sum(packetBytes) 	1127624
attr interpolationmode  none
attr source  packetSentToLower
attr title  "packets sent to lower layer, sum(packetBytes)"
scalar Flooding.host[0].wlan[0].radio 	lossRate:min 	0
attr interpolationmode  backward-sample-hold
attr title  "packet loss rate, min"
scalar Flooding.host[0].wlan[0].radio 	lossRate:max 	0.1
attr interpolationmode  backward-sample-hold
attr title  "packet loss rate, max"
scalar Flooding.host[0].wlan[0].radio 	lossRate:timeavg 	0.0019880695805496
attr interpolationmode  backward-sample-hold
attr title  "packet loss rate, timeavg"
statistic Flooding.host[0].wlan[0].radio 	channelNo:histogram
field count 1
field mean 0
field stddev -nan
field sum 0
field sqrsum 0
field min 0
field max 0
attr interpolationmode  sample-hold
attr title  "channel no, histogram"
bin	-INF	0
bin	-0.5	0
bin	-0.46666666666667	0
bin	-0.43333333333333	0
bin	-0.4	0
bin	-0.36666666666667	0
bin	-0.33333333333333	0
bin	-0.3	0
bin	-0.26666666666667	0
bin	-0.23333333333333	0
bin	-0.2	0
bin	-0.16666666666667	0
bin	-0.13333333333333	0
bin	-0.1	0
bin	-0.066666666666667	0
bin	-0.033333333333333	0
bin	0	1
bin	0.033333333333333	0
bin	0.066666666666667	0
bin	0.1	0
bin	0.13333333333333	0
bin	0.16666666666667	0
bin	0.2	0
bin	0.23333333333333	0
bin	0.26666666666667	0
bin	0.3	0
bin	0.33333333333333	0
bin	0.36666666666667	0
bin	0.4	0
bin	0.43333333333333	0
bin	0.46666666666667	0
bin	0.5	0
scalar Flooding.host[0].wlan[0].radio 	bitrate:min 	11000000
attr interpolationmode  sample-hold
attr title  "tx bitrate, min"
attr unit  bps
scalar Flooding.host[0].wlan[0].radio 	bitrate:max 	11000000
attr interpolationmode  sample-hold
attr title  "tx bitrate, max"
attr unit  bps
scalar Flooding.host[0].wlan[0].radio 	bitrate:timeavg 	11000000
attr interpolationmode  sample-hold
attr title  "tx bitrate, timeavg"
attr unit  bps
scalar Flooding.host[0].wlan[0].radio 	radioState:count 	552457
attr interpolationmode  sample-hold
attr title  "radio state (enum), count"
scalar Flooding.host[0].pingApp[0] 	"Pings sent" 	2300
scalar Flooding.host[0].pingApp[0] 	"ping loss rate (%)" 	0
scalar Flooding.host[0].pingApp[0] 	"ping out-of-order rate (%)" 	0
scalar Flooding.host[0].pingApp[0] 	numOutOfOrderArrivals:last 	-nan
attr interpolationmode  none
attr title  "ping out-of-order arrivals, last"
scalar Flooding.host[0].pingApp[0] 	pingRxSeq:count 	2300
attr interpolationmode  none
attr title  "ping rx seq, count"
scalar Flooding.host[0].pingApp[0] 	pingTxSeq:count 	2300
attr interpolationmode  none
attr title  "ping tx seq, count"
scalar Flooding.host[0].pingApp[0] 	numLost:last 	-nan
attr interpolationmode  none
attr title  "pings lost, last"
statistic Flooding.host[0].pingApp[0] 	rtt:histogram
field count 2300
field mean 0.0022574127700001
field stddev 0.026877062021379
field sum 5.1920493710002
field sqrsum 1.6724640867621
field min 0.001078266
field max 1.002609532
attr interpolationmode  none
attr title  "ping round-trip time, histogram"
attr unit  s
bin	-INF	0
bin	-0.00020207	0
bin	-3.1358533333333e-05	0
bin	0.00013935293333333	0
bin	0.0003100644	0
bin	0.00048077586666667	0
bin	0.00065148733333333	0
bin	0.0008221988	0
bin	0.00099291026666667	1859
bin	0.0011636217333333	50
bin	0.0013343332	44
bin	0.0015050446666667	37
bin	0.0016757561333333	61
bin	0.0018464676	48
bin	0.0020171790666667	29
bin	0.0021878905333333	34
bin	0.002358602	26
bin	0.0025293134666667	23
bin	0.0027000249333333	8
bin	0.0028707364	6
bin	0.0030414478666667	13
bin	0.0032121593333333	14
bin	0.0033828708	6
bin	0.0035535822666667	6
bin	0.0037242937333333	4
bin	0.0038950052	5
bin	0.0040657166666667	5
bin	0.0042364281333333	0
bin	0.0044071396	3
bin	0.0045778510666667	2
bin	0.0047485625333333	2
bin	0.004919274	15
scalar Flooding.host[0].pingTestApp[0] 	numOutOfOrderArrivals:last 	-nan
attr interpolationmode  none
attr title  "ping out-of-order arrivals, last"
scalar Flooding.host[0].pingTestApp[0] 	pingRxSeq:count 	0
attr interpolationmode  none
attr title  "ping rx seq, count"
scalar Flooding.host[0].pingTestApp[0] 	pingTxSeq:count 	0
attr interpolationmode  none
attr title  "ping tx seq, count"
scalar Flooding.host[0].pingTestApp[0] 	numLost:last 	-nan
attr interpolationmode  none
attr title  "pings lost, last"
statistic Flooding.host[0].pingTestApp[0] 	rtt:histogram
field count 0
field mean -nan
field stddev -nan
field sum 0
field sqrsum 0
field min -nan
field max -nan
attr interpolationmode  none
attr title  "ping round-trip time, histogram"
attr unit  s
bin	-INF	0
bin	-0.5	0
bin	-0.46666666666667	0
bin	-0.43333333333333	0
bin	-0.4	0
bin	-0.36666666666667	0
bin	-0.33333333333333	0
bin	-0.3	0
bin	-0.26666666666667	0
bin	-0.23333333333333	0
bin	-0.2	0
bin	-0.16666666666667	0
bin	-0.13333333333333	0
bin	-0.1	0
bin	-0.066666666666667	0
bin	-0.033333333333333	0
bin	0	0
bin	0.033333333333333	0
bin	0.066666666666667	0
bin	0.1	0
bin	0.13333333333333	0
bin	0.16666666666667	0
bin	0.2	0
bin	0.23333333333333	0
bin	0.26666666666667	0
bin	0.3	0
bin	0.33333333333333	0
bin	0.36666666666667	0
bin	0.4	0
bin	0.43333333333333	0
bin	0.46666666666667	0
bin	0.5	0
scalar Flooding.host[0].manetrouting 	OLSR_HNA_Messages_(Forwarded) 	0
scalar Flooding.host[0].manetrouting 	OLSR_TC_Messages_(Forwarded) 	739
scalar Flooding.host[0].manetrouting 	OLSR_Total_HELLO 	515
scalar Flooding.host[0].manetrouting 	OLSR_Total_HNA_(originated) 	0
scalar Flooding.host[0].manetrouting 	OLSR_Total_TC 	0
scalar Flooding.host[0].manetrouting 	OLSR_Total_Messages_Sent 	1254
scalar Flooding.host[1].networkLayer.arp 	failedARPResolution:count 	0
attr title  "ARP failed resolutions, count"
scalar Flooding.host[1].networkLayer.arp 	completedARPResolution:count 	15
attr title  "ARP completed resolutions, count"
scalar Flooding.host[1].networkLayer.arp 	initiatedARPResolution:count 	6
attr title  "ARP initiated resolutions, count"
scalar Flooding.host[1].networkLayer.arp 	sentReply:count 	6
attr title  "ARP replies sent, count"
scalar Flooding.host[1].networkLayer.arp 	sentReq:count 	6
attr title  "ARP request sent, count"
scalar Flooding.host[1].lo0.lo 	droppedPkBitError:count 	0
attr interpolationmode  none
attr source  dropPkBitError
attr title  "packets dropped/bit error, count"
scalar Flooding.host[1].lo0.lo 	droppedPkBitError:sum(packetBytes) 	0
attr interpolationmode  none
attr source  dropPkBitError
attr title  "packets dropped/bit error, sum(packetBytes)"
scalar Flooding.host[1].lo0.lo 	rcvdPkFromHL:count 	0
attr interpolationmode  none
attr source  packetReceivedFromUpper
attr title  "packets received from higher layer, count"
scalar Flooding.host[1].lo0.lo 	rcvdPkFromHL:sum(packetBytes) 	0
attr interpolationmode  none
attr source  packetReceivedFromUpper
attr title  "packets received from higher layer, sum(packetBytes)"
scalar Flooding.host[1].lo0.lo 	passedUpPk:count 	0
attr interpolationmode  none
attr source  packetSentToUpper
attr title  "packets passed to higher layer, count"
scalar Flooding.host[1].lo0.lo 	passedUpPk:sum(packetBytes) 	0
attr interpolationmode  none
attr source  packetSentToUpper
attr title  "packets passed to higher layer, sum(packetBytes)"
scalar Flooding.host[1].wlan[0].mgmt 	dataQueueLen:max 	0
attr interpolationmode  sample-hold
attr title  "data queue length, max"
scalar Flooding.host[1].wlan[0].mgmt 	dataQueueLen:timeavg 	0
attr interpolationmode  sample-hold
attr title  "data queue length, timeavg"
scalar Flooding.host[1].wlan[0].mgmt 	dropPkByQueue:count 	0
attr interpolationmode  none
attr source  dropPkByQueue
attr title  "packets dropped by queue, count"
scalar Flooding.host[1].wlan[0].mgmt 	dropPkByQueue:sum(packetBytes) 	0
attr interpolationmode  none
attr source  dropPkByQueue
attr title  "packets dropped by queue, sum(packetBytes)"
scalar Flooding.host[1].wlan[0].mac 	"number of received packets" 	4605
scalar Flooding.host[1].wlan[0].mac 	"number of collisions" 	4483
scalar Flooding.host[1].wlan[0].mac 	"number of internal collisions" 	0
scalar Flooding.host[1].wlan[0].mac 	"number of retry for AC 0" 	18
scalar Flooding.host[1].wlan[0].mac 	"sent and received bits" 	8120944
scalar Flooding.host[1].wlan[0].mac 	"sent packet within AC 0" 	4605
scalar Flooding.host[1].wlan[0].mac 	"sent in TXOP " 	0
scalar Flooding.host[1].wlan[0].mac 	"sentWithoutRetry AC 0" 	4589
scalar Flooding.host[1].wlan[0].mac 	"numGivenUp AC 0" 	0
scalar Flooding.host[1].wlan[0].mac 	"numDropped AC 0" 	0
scalar Flooding.host[1].wlan[0].mac 	rcvdPkFromHL:count 	5255
attr interpolationmode  none
attr source  packetReceivedFromUpper
attr title  "packets received from higher layer, count"
scalar Flooding.host[1].wlan[0].mac 	rcvdPkFromHL:sum(packetBytes) 	1015118
attr interpolationmode  none
attr source  packetReceivedFromUpper
attr title  "packets received from higher layer, sum(packetBytes)"
scalar Flooding.host[1].wlan[0].mac 	passedUpPk:count 	32387
attr interpolationmode  none
attr source  packetSentToUpper
attr title  "packets passed to higher layer, count"
scalar Flooding.host[1].wlan[0].mac 	passedUpPk:sum(packetBytes) 	6441774
attr interpolationmode  none
attr source  packetSentToUpper
attr title  "packets passed to higher layer, sum(packetBytes)"
scalar Flooding.host[1].wlan[0].mac 	rcvdPkFromLL:count 	324629
attr interpolationmode  none
attr source  packetReceivedFromLower
attr title  "packets received from lower layer, count"
scalar Flooding.host[1].wlan[0].mac 	rcvdPkFromLL:sum(packetBytes) 	36057806
attr interpolationmode  none
attr source  packetReceivedFromLower
attr title  "packets received from lower layer, sum(packetBytes)"
scalar Flooding.host[1].wlan[0].mac 	sentDownPk:count 	9878
attr interpolationmode  none
attr source  packetSentToLower
attr title  "packets sent to lower layer, count"
scalar Flooding.host[1].wlan[0].mac 	sentDownPk:sum(packetBytes) 	1083008
attr interpolationmode  none
attr source  packetSentToLower
attr title  "packets sent to lower layer, sum(packetBytes)"
scalar Flooding.host[1].wlan[0].radio 	lossRate:min 	0
attr interpolationmode  backward-sample-hold
attr title  "packet loss rate, min"
scalar Flooding.host[1].wlan[0].radio 	lossRate:max 	0.24
attr interpolationmode  backward-sample-hold
attr title  "packet loss rate, max"
scalar Flooding.host[1].wlan[0].radio 	lossRate:timeavg 	0.012179021964858
attr interpolationmode  backward-sample-hold
attr title  "packet loss rate, timeavg"
statistic Flooding.host[1].wlan[0].radio 	channelNo:histogram
field count 1
field mean 0
field stddev -nan
field sum 0
field sqrsum 0
field min 0
field max 0
attr interpolationmode  sample-hold
attr title  "channel no, histogram"
bin	-INF	0
bin	-0.5	0
bin	-0.46666666666667	0
bin	-0.43333333333333	0
bin	-0.4	0
bin	-0.36666666666667	0
bin	-0.33333333333333	0
bin	-0.3	0
bin	-0.26666666666667	0
bin	-0.23333333333333	0
bin	-0.2	0
bin	-0.16666666666667	0
bin	-0.13333333333333	0
bin	-0.1	0
bin	-0.066666666666667	0
bin	-0.033333333333333	0
bin	0	1
bin	0.033333333333333	0
bin	0.066666666666667	0
bin	0.1	0
bin	0.13333333333333	0
bin	0.16666666666667	0
bin	0.2	0
bin	0.23333333333333	0
bin	0.26666666666667	0
bin	0.3	0
bin	0.33333333333333	0
bin	0.36666666666667	0
bin	0.4	0
bin	0.43333333333333	0
bin	0.46666666666667	0
bin	0.5	0
scalar Flooding.host[1].wlan[0].radio 	bitrate:min 	11000000
attr interpolationmode  sample-hold
attr title  "tx bitrate, min"
attr unit  bps
scalar Flooding.host[1].wlan[0].radio 	bitrate:max 	11000000
attr interpolationmode  sample-hold
attr title  "tx bitrate, max"
attr unit  bps
scalar Flooding.host[1].wlan[0].radio 	bitrate:timeavg 	11000000
attr interpolationmode  sample-hold
attr title  "tx bitrate, timeavg"
attr unit  bps
scalar Flooding.host[1].wlan[0].radio 	radioState:count 	666669
attr interpolationmode  sample-hold
attr title  "radio state (enum), count"
scalar Flooding.host[1].pingApp[0] 	"Pings sent" 	2301
scalar Flooding.host[1].pingApp[0] 	"ping loss rate (%)" 	0
scalar Flooding.host[1].pingApp[0] 	"ping out-of-order rate (%)" 	0
scalar Flooding.host[1].pingApp[0] 	numOutOfOrderArrivals:last 	-nan
attr interpolationmode  none
attr title  "ping out-of-order arrivals, last"
scalar Flooding.host[1].pingApp[0] 	pingRxSeq:count 	2301
attr interpolationmode  none
attr title  "ping rx seq, count"
scalar Flooding.host[1].pingApp[0] 	pingTxSeq:count 	2301
attr interpolationmode  none
attr title  "ping tx seq, count"
scalar Flooding.host[1].pingApp[0] 	numLost:last 	-nan
attr interpolationmode  none
attr title  "pings lost, last"
statistic Flooding.host[1].pingApp[0] 	rtt:histogram
field count 2301
field mean 0.0013487168344198
field stddev 0.000733043414687
field sum 3.103397436
field sqrsum 0.0054215154558053
field min 0.00107802
field max 0.008762661
attr interpolationmode  none
attr title  "ping round-trip time, histogram"
attr unit  s
bin	-INF	0
bin	-6.1905e-05	0
bin	9.0085e-05	0
bin	0.000242075	0
bin	0.000394065	0
bin	0.000546055	0
bin	0.000698045	0
bin	0.000850035	0
bin	0.001002025	1801
bin	0.001154015	41
bin	0.001306005	49
bin	0.001457995	44
bin	0.001609985	41
bin	0.001761975	39
bin	0.001913965	39
bin	0.002065955	44
bin	0.002217945	29
bin	0.002369935	32
bin	0.002521925	23
bin	0.002673915	12
bin	0.002825905	15
bin	0.002977895	15
bin	0.003129885	13
bin	0.003281875	10
bin	0.003433865	7
bin	0.003585855	4
bin	0.003737845	3
bin	0.003889835	3
bin	0.004041825	3
bin	0.004193815	5
bin	0.004345805	4
bin	0.004497795	25
scalar Flooding.host[1].pingTestApp[0] 	numOutOfOrderArrivals:last 	-nan
attr interpolationmode  none
attr title  "ping out-of-order arrivals, last"
scalar Flooding.host[1].pingTestApp[0] 	pingRxSeq:count 	0
attr interpolationmode  none
attr title  "ping rx seq, count"
scalar Flooding.host[1].pingTestApp[0] 	pingTxSeq:count 	0
attr interpolationmode  none
attr title  "ping tx seq, count"
scalar Flooding.host[1].pingTestApp[0] 	numLost:last 	-nan
attr interpolationmode  none
attr title  "pings lost, last"
statistic Flooding.host[1].pingTestApp[0] 	rtt:histogram
field count 0
field mean -nan
field stddev -nan
field sum 0
field sqrsum 0
field min -nan
field max -nan
attr interpolationmode  none
attr title  "ping round-trip time, histogram"
attr unit  s
bin	-INF	0
bin	-0.5	0
bin	-0.46666666666667	0
bin	-0.43333333333333	0
bin	-0.4	0
bin	-0.36666666666667	0
bin	-0.33333333333333	0
bin	-0.3	0
bin	-0.26666666666667	0
bin	-0.23333333333333	0
bin	-0.2	0
bin	-0.16666666666667	0
bin	-0.13333333333333	0
bin	-0.1	0
bin	-0.066666666666667	0
bin	-0.033333333333333	0
bin	0	0
bin	0.033333333333333	0
bin	0.066666666666667	0
bin	0.1	0
bin	0.13333333333333	0
bin	0.16666666666667	0
bin	0.2	0
bin	0.23333333333333	0
bin	0.26666666666667	0
bin	0.3	0
bin	0.33333333333333	0
bin	0.36666666666667	0
bin	0.4	0
bin	0.43333333333333	0
bin	0.46666666666667	0
bin	0.5	0
scalar Flooding.host[1].manetrouting 	OLSR_HNA_Messages_(Forwarded) 	0
scalar Flooding.host[1].manetrouting 	OLSR_TC_Messages_(Forwarded) 	739
scalar Flooding.host[1].manetrouting 	OLSR_Total_HELLO 	511
scalar Flooding.host[1].manetrouting 	OLSR_Total_HNA_(originated) 	0
scalar Flooding.host[1].manetrouting 	OLSR_Total_TC 	0
scalar Flooding.host[1].manetrouting 	OLSR_Total_Messages_Sent 	1250
scalar Flooding.host[2].networkLayer.arp 	failedARPResolution:count 	0
attr title  "ARP failed resolutions, count"
scalar Flooding.host[2].networkLayer.arp 	completedARPResolution:count 	17
attr title  "ARP completed resolutions, count"
scalar Flooding.host[2].networkLayer.arp 	initiatedARPResolution:count 	5
attr title  "ARP initiated resolutions, count"
scalar Flooding.host[2].networkLayer.arp 	sentReply:count 	7
attr title  "ARP replies sent, count"
scalar Flooding.host[2].networkLayer.arp 	sentReq:count 	5
attr title  "ARP request sent, count"
scalar Flooding.host[2].lo0.lo 	droppedPkBitError:count 	0
attr interpolationmode  none
attr source  dropPkBitError
attr title  "packets dropped/bit error, count"
scalar Flooding.host[2].lo0.lo 	droppedPkBitError:sum(packetBytes) 	0
attr interpolationmode  none
attr source  dropPkBitError
attr title  "packets dropped/bit error, sum(packetBytes)"
scalar Flooding.host[2].lo0.lo 	rcvdPkFromHL:count 	0
attr interpolationmode  none
attr source  packetReceivedFromUpper
attr title  "packets received from higher layer, count"
scalar Flooding.host[2].lo0.lo 	rcvdPkFromHL:sum(packetBytes) 	0
attr interpolationmode  none
attr source  packetReceivedFromUpper
attr title  "packets received from higher layer, sum(packetBytes)"
scalar Flooding.host[2].lo0.lo 	passedUpPk:count 	0
attr interpolationmode  none
attr source  packetSentToUpper
attr title  "packets passed to higher layer, count"
scalar Flooding.host[2].lo0.lo 	passedUpPk:sum(packetBytes) 	0
attr interpolationmode  none
attr source  packetSentToUpper
attr title  "packets passed to higher layer, sum(packetBytes)"
scalar Flooding.host[2].wlan[0].mgmt 	dataQueueLen:max 	3
attr interpolationmode  sample-hold
attr title  "data queue length, max"
scalar Flooding.host[2].wlan[0].mgmt 	dataQueueLen:timeavg 	2.7067516277364e-05
attr interpolationmode  sample-hold
attr title  "data queue length, timeavg"
scalar Flooding.host[2].wlan[0].mgmt 	dropPkByQueue:count 	0
attr interpolationmode  none
attr source  dropPkByQueue
attr title  "packets dropped by queue, count"
scalar Flooding.host[2].wlan[0].mgmt 	dropPkByQueue:sum(packetBytes) 	0
attr interpolationmode  none
attr source  dropPkByQueue
attr title  "packets dropped by queue, sum(packetBytes)"
scalar Flooding.host[2].wlan[0].mac 	"number of received packets" 	4603
scalar Flooding.host[2].wlan[0].mac 	"number of collisions" 	4507
scalar Flooding.host[2].wlan[0].mac 	"number of internal collisions" 	0
scalar Flooding.host[2].wlan[0].mac 	"number of retry for AC 0" 	18
scalar Flooding.host[2].wlan[0].mac 	"sent and received bits" 	8124480
scalar Flooding.host[2].wlan[0].mac 	"sent packet within AC 0" 	4604
scalar Flooding.host[2].wlan[0].mac 	"sent in TXOP " 	0
scalar Flooding.host[2].wlan[0].mac 	"sentWithoutRetry AC 0" 	4589
scalar Flooding.host[2].wlan[0].mac 	"numGivenUp AC 0" 	0
scalar Flooding.host[2].wlan[0].mac 	"numDropped AC 0" 	0
scalar Flooding.host[2].wlan[0].mac 	rcvdPkFromHL:count 	5252
attr interpolationmode  none
attr source  packetReceivedFromUpper
attr title  "packets received from higher layer, count"
scalar Flooding.host[2].wlan[0].mac 	rcvdPkFromHL:sum(packetBytes) 	1015560
attr interpolationmode  none
attr source  packetReceivedFromUpper
attr title  "packets received from higher layer, sum(packetBytes)"
scalar Flooding.host[2].wlan[0].mac 	passedUpPk:count 	32371
attr interpolationmode  none
attr source  packetSentToUpper
attr title  "packets passed to higher layer, count"
scalar Flooding.host[2].wlan[0].mac 	passedUpPk:sum(packetBytes) 	6435918
attr interpolationmode  none
attr source  packetSentToUpper
attr title  "packets passed to higher layer, sum(packetBytes)"
scalar Flooding.host[2].wlan[0].mac 	rcvdPkFromLL:count 	324631
attr interpolationmode  none
attr source  packetReceivedFromLower
attr title  "packets received from lower layer, count"
scalar Flooding.host[2].wlan[0].mac 	rcvdPkFromLL:sum(packetBytes) 	36055562
attr interpolationmode  none
attr source  packetReceivedFromLower
attr title  "packets received from lower layer, sum(packetBytes)"
scalar Flooding.host[2].wlan[0].mac 	sentDownPk:count 	9873
attr interpolationmode  none
attr source  packetSentToLower
attr title  "packets sent to lower layer, count"
scalar Flooding.host[2].wlan[0].mac 	sentDownPk:sum(packetBytes) 	1083422
attr interpolationmode  none
attr source  packetSentToLower
attr title  "packets sent to lower layer, sum(packetBytes)"
scalar Flooding.host[2].wlan[0].radio 	lossRate:min 	0
attr interpolationmode  backward-sample-hold
attr title  "packet loss rate, min"
scalar Flooding.host[2].wlan[0].radio 	lossRate:max 	0.24
attr interpolationmode  backward-sample-hold
attr title  "packet loss rate, max"
scalar Flooding.host[2].wlan[0].radio 	lossRate:timeavg 	0.012463912099166
attr interpolationmode  backward-sample-hold
attr title  "packet loss rate, timeavg"
statistic Flooding.host[2].wlan[0].radio 	channelNo:histogram
field count 1
field mean 0
field stddev -nan
field sum 0
field sqrsum 0
field min 0
field max 0
attr interpolationmode  sample-hold
attr title  "channel no, histogram"
bin	-INF	0
bin	-0.5	0
bin	-0.46666666666667	0
bin	-0.43333333333333	0
bin	-0.4	0
bin	-0.36666666666667	0
bin	-0.33333333333333	0
bin	-0.3	0
bin	-0.26666666666667	0
bin	-0.23333333333333	0
bin	-0.2	0
bin	-0.16666666666667	0
bin	-0.13333333333333	0
bin	-0.1	0
bin	-0.066666666666667	0
bin	-0.033333333333333	0
bin	0	1
bin	0.033333333333333	0
bin	0.066666666666667	0
bin	0.1	0
bin	0.13333333333333	0
bin	0.16666666666667	0
bin	0.2	0
bin	0.23333333333333	0
bin	0.26666666666667	0
bin	0.3	0
bin	0.33333333333333	0
bin	0.36666666666667	0
bin	0.4	0
bin	0.43333333333333	0
bin	0.46666666666667	0
bin	0.5	0
scalar Flooding.host[2].wlan[0].radio 	bitrate:min 	11000000
attr interpolationmode  sample-hold
attr title  "tx bitrate, min"
attr unit  bps
scalar Flooding.host[2].wlan[0].radio 	bitrate:max 	11000000
attr interpolationmode  sample-hold
attr title  "tx bitrate, max"
attr unit  bps
scalar Flooding.host[2].wlan[0].radio 	bitrate:timeavg 	11000000
attr interpolationmode  sample-hold
attr title  "tx bitrate, timeavg"
attr unit  bps
scalar Flooding.host[2].wlan[0].radio 	radioState:count 	666681
attr interpolationmode  sample-hold
attr title  "radio state (enum), count"
scalar Flooding.host[2].pingApp[0] 	"Pings sent" 	2299
scalar Flooding.host[2].pingApp[0] 	"ping loss rate (%)" 	0
scalar Flooding.host[2].pingApp[0] 	"ping out-of-order rate (%)" 	0
scalar Flooding.host[2].pingApp[0] 	numOutOfOrderArrivals:last 	-nan
attr interpolationmode  none
attr title  "ping out-of-order arrivals, last"
scalar Flooding.host[2].pingApp[0] 	pingRxSeq:count 	2299
attr interpolationmode  none
attr title  "ping rx seq, count"
scalar Flooding.host[2].pingApp[0] 	pingTxSeq:count 	2299
attr interpolationmode  none
attr title  "ping tx seq, count"
scalar Flooding.host[2].pingApp[0] 	numLost:last 	-nan
attr interpolationmode  none
attr title  "pings lost, last"
statistic Flooding.host[2].pingApp[0] 	rtt:histogram
field count 2299
field mean 0.0021998900761201
field stddev 0.024155951949029
field sum 5.057547285
field sqrsum 1.3520320615494
field min 0.001046635
field max 0.917836267
attr interpolationmode  none
attr title  "ping round-trip time, histogram"
attr unit  s
bin	-INF	0
bin	-0.4572980735	0
bin	-0.3961809917	0
bin	-0.3350639099	0
bin	-0.2739468281	0
bin	-0.2128297463	0
bin	-0.1517126645	0
bin	-0.0905955827	0
bin	-0.0294785009	2296
bin	0.0316385809	0
bin	0.0927556627	0
bin	0.1538727445	0
bin	0.2149898263	0
bin	0.2761069081	1
bin	0.3372239899	0
bin	0.3983410717	0
bin	0.4594581535	0
bin	0.5205752353	0
bin	0.5816923171	1
bin	0.6428093989	0
bin	0.7039264807	0
bin	0.7650435625	0
bin	0.8261606443	0
bin	0.8872777261	1
bin	0.9483948079	0
bin	1.0095118897	0
bin	1.0706289715	0
bin	1.1317460533	0
bin	1.1928631351	0
bin	1.2539802169	0
bin	1.3150972987	0
bin	1.3762143805	0
scalar Flooding.host[2].pingTestApp[0] 	numOutOfOrderArrivals:last 	-nan
attr interpolationmode  none
attr title  "ping out-of-order arrivals, last"
scalar Flooding.host[2].pingTestApp[0] 	pingRxSeq:count 	0
attr interpolationmode  none
attr title  "ping rx seq, count"
scalar Flooding.host[2].pingTestApp[0] 	pingTxSeq:count 	0
attr interpolationmode  none
attr title  "ping tx seq, count"
scalar Flooding.host[2].pingTestApp[0] 	numLost:last 	-nan
attr interpolationmode  none
attr title  "pings lost, last"
statistic Flooding.host[2].pingTestApp[0] 	rtt:histogram
field count 0
field mean -nan
field stddev -nan
field sum 0
field sqrsum 0
field min -nan
field max -nan
attr interpolationmode  none
attr title  "ping round-trip time, histogram"
attr unit  s
bin	-INF	0
bin	-0.5	0
bin	-0.46666666666667	0
bin	-0.43333333333333	0
bin	-0.4	0
bin	-0.36666666666667	0
bin	-0.33333333333333	0
bin	-0.3	0
bin	-0.26666666666667	0
bin	-0.23333333333333	0
bin	-0.2	0
bin	-0.16666666666667	0
bin	-0.13333333333333	0
bin	-0.1	0
bin	-0.066666666666667	0
bin	-0.033333333333333	0
bin	0	0
bin	0.033333333333333	0
bin	0.066666666666667	0
bin	0.1	0
bin	0.13333333333333	0
bin	0.16666666666667	0
bin	0.2	0
bin	0.23333333333333	0
bin	0.26666666666667	0
bin	0.3	0
bin	0.33333333333333	0
bin	0.36666666666667	0
bin	0.4	0
bin	0.43333333333333	0
bin	0.46666666666667	0
bin	0.5	0
scalar Flooding.host[2].manetrouting 	OLSR_HNA_Messages_(Forwarded) 	0
scalar Flooding.host[2].manetrouting 	OLSR_TC_Messages_(Forwarded) 	739
scalar Flooding.host[2].manetrouting 	OLSR_Total_HELLO 	516
scalar Flooding.host[2].manetrouting 	OLSR_Total_HNA_(originated) 	0
scalar Flooding.host[2].manetrouting 	OLSR_Total_TC 	0
scalar Flooding.host[2].manetrouting 	OLSR_Total_Messages_Sent 	1255
scalar Flooding.host[3].networkLayer.arp 	failedARPResolution:count 	0
attr title  "ARP failed resolutions, count"
scalar Flooding.host[3].networkLayer.arp 	completedARPResolution:count 	16
attr title  "ARP completed resolutions, count"
scalar Flooding.host[3].networkLayer.arp 	initiatedARPResolution:count 	6
attr title  "ARP initiated resolutions, count"
scalar Flooding.host[3].networkLayer.arp 	sentReply:count 	5
attr title  "ARP replies sent, count"
scalar Flooding.host[3].networkLayer.arp 	sentReq:count 	6
attr title  "ARP request sent, count"
scalar Flooding.host[3].lo0.lo 	droppedPkBitError:count 	0
attr interpolationmode  none
attr source  dropPkBitError
attr title  "packets dropped/bit error, count"
scalar Flooding.host[3].lo0.lo 	droppedPkBitError:sum(packetBytes) 	0
attr interpolationmode  none
attr source  dropPkBitError
attr title  "packets dropped/bit error, sum(packetBytes)"
scalar Flooding.host[3].lo0.lo 	rcvdPkFromHL:count 	0
attr interpolationmode  none
attr source  packetReceivedFromUpper
attr title  "packets received from higher layer, count"
scalar Flooding.host[3].lo0.lo 	rcvdPkFromHL:sum(packetBytes) 	0
attr interpolationmode  none
attr source  packetReceivedFromUpper
attr title  "packets received from higher layer, sum(packetBytes)"
scalar Flooding.host[3].lo0.lo 	passedUpPk:count 	0
attr interpolationmode  none
attr source  packetSentToUpper
attr title  "packets passed to higher layer, count"
scalar Flooding.host[3].lo0.lo 	passedUpPk:sum(packetBytes) 	0
attr interpolationmode  none
attr source  packetSentToUpper
attr title  "packets passed to higher layer, sum(packetBytes)"
scalar Flooding.host[3].wlan[0].mgmt 	dataQueueLen:max 	0
attr interpolationmode  sample-hold
attr title  "data queue length, max"
scalar Flooding.host[3].wlan[0].mgmt 	dataQueueLen:timeavg 	0
attr interpolationmode  sample-hold
attr title  "data queue length, timeavg"
scalar Flooding.host[3].wlan[0].mgmt 	dropPkByQueue:count 	0
attr interpolationmode  none
attr source  dropPkByQueue
attr title  "packets dropped by queue, count"
scalar Flooding.host[3].wlan[0].mgmt 	dropPkByQueue:sum(packetBytes) 	0
attr interpolationmode  none
attr source  dropPkByQueue
attr title  "packets dropped by queue, sum(packetBytes)"
scalar Flooding.host[3].wlan[0].mac 	"number of received packets" 	4608
scalar Flooding.host[3].wlan[0].mac 	"number of collisions" 	4328
scalar Flooding.host[3].wlan[0].mac 	"number of internal collisions" 	0
scalar Flooding.host[3].wlan[0].mac 	"number of retry for AC 0" 	20
scalar Flooding.host[3].wlan[0].mac 	"sent and received bits" 	8136592
scalar Flooding.host[3].wlan[0].mac 	"sent packet within AC 0" 	4607
scalar Flooding.host[3].wlan[0].mac 	"sent in TXOP " 	0
scalar Flooding.host[3].wlan[0].mac 	"sentWithoutRetry AC 0" 	4588
scalar Flooding.host[3].wlan[0].mac 	"numGivenUp AC 0" 	0
scalar Flooding.host[3].wlan[0].mac 	"numDropped AC 0" 	0
scalar Flooding.host[3].wlan[0].mac 	rcvdPkFromHL:count 	5267
attr interpolationmode  none
attr source  packetReceivedFromUpper
attr title  "packets received from higher layer, count"
scalar Flooding.host[3].wlan[0].mac 	rcvdPkFromHL:sum(packetBytes) 	1017074
attr interpolationmode  none
attr source  packetReceivedFromUpper
attr title  "packets received from higher layer, sum(packetBytes)"
scalar Flooding.host[3].wlan[0].mac 	passedUpPk:count 	32404
attr interpolationmode  none
attr source  packetSentToUpper
attr title  "packets passed to higher layer, count"
scalar Flooding.host[3].wlan[0].mac 	passedUpPk:sum(packetBytes) 	6445688
attr interpolationmode  none
attr source  packetSentToUpper
attr title  "packets passed to higher layer, sum(packetBytes)"
scalar Flooding.host[3].wlan[0].mac 	rcvdPkFromLL:count 	324616
attr interpolationmode  none
attr source  packetReceivedFromLower
attr title  "packets received from lower layer, count"
scalar Flooding.host[3].wlan[0].mac 	rcvdPkFromLL:sum(packetBytes) 	36055304
attr interpolationmode  none
attr source  packetReceivedFromLower
attr title  "packets received from lower layer, sum(packetBytes)"
scalar Flooding.host[3].wlan[0].mac 	sentDownPk:count 	9895
attr interpolationmode  none
attr source  packetSentToLower
attr title  "packets sent to lower layer, count"
scalar Flooding.host[3].wlan[0].mac 	sentDownPk:sum(packetBytes) 	1085386
attr interpolationmode  none
attr source  packetSentToLower
attr title  "packets sent to lower layer, sum(packetBytes)"
scalar Flooding.host[3].wlan[0].radio 	lossRate:min 	0
attr interpolationmode  backward-sample-hold
attr title  "packet loss rate, min"
scalar Flooding.host[3].wlan[0].radio 	lossRate:max 	0.24
attr interpolationmode  backward-sample-hold
attr title  "packet loss rate, max"
scalar Flooding.host[3].wlan[0].radio 	lossRate:timeavg 	0.011764048604663
attr interpolationmode  backward-sample-hold
attr title  "packet loss rate, timeavg"
statistic Flooding.host[3].wlan[0].radio 	channelNo:histogram
field count 1
field mean 0
field stddev -nan
field sum 0
field sqrsum 0
field min 0
field max 0
attr interpolationmode  sample-hold
attr title  "channel no, histogram"
bin	-INF	0
bin	-0.5	0
bin	-0.46666666666667	0
bin	-0.43333333333333	0
bin	-0.4	0
bin	-0.36666666666667	0
bin	-0.33333333333333	0
bin	-0.3	0
bin	-0.26666666666667	0
bin	-0.23333333333333	0
bin	-0.2	0
bin	-0.16666666666667	0
bin	-0.13333333333333	0
bin	-0.1	0
bin	-0.066666666666667	0
bin	-0.033333333333333	0
bin	0	1
bin	0.033333333333333	0
bin	0.066666666666667	0
bin	0.1	0
bin	0.13333333333333	0
bin	0.16666666666667	0
bin	0.2	0
bin	0.23333333333333	0
bin	0.26666666666667	0
bin	0.3	0
bin	0.33333333333333	0
bin	0.36666666666667	0
bin	0.4	0
bin	0.43333333333333	0
bin	0.46666666666667	0
bin	0.5	0
scalar Flooding.host[3].wlan[0].radio 	bitrate:min 	11000000
attr interpolationmode  sample-hold
attr title  "tx bitrate, min"
attr unit  bps
scalar Flooding.host[3].wlan[0].radio 	bitrate:max 	11000000
attr interpolationmode  sample-hold
attr title  "tx bitrate, max"
attr unit  bps
scalar Flooding.host[3].wlan[0].radio 	bitrate:timeavg 	11000000
attr interpolationmode  sample-hold
attr title  "tx bitrate, timeavg"
attr unit  bps
scalar Flooding.host[3].wlan[0].radio 	radioState:count 	666675
attr interpolationmode  sample-hold
attr title  "radio state (enum), count"
scalar Flooding.host[3].pingApp[0] 	"Pings sent" 	2300
scalar Flooding.host[3].pingApp[0] 	"ping loss rate (%)" 	0
scalar Flooding.host[3].pingApp[0] 	"ping out-of-order rate (%)" 	0
scalar Flooding.host[3].pingApp[0] 	numOutOfOrderArrivals:last 	-nan
attr interpolationmode  none
attr title  "ping out-of-order arrivals, last"
scalar Flooding.host[3].pingApp[0] 	pingRxSeq:count 	2300
attr interpolationmode  none
attr title  "ping rx seq, count"
scalar Flooding.host[3].pingApp[0] 	pingTxSeq:count 	2300
attr interpolationmode  none
attr title  "ping tx seq, count"
scalar Flooding.host[3].pingApp[0] 	numLost:last 	-nan
attr interpolationmode  none
attr title  "pings lost, last"
statistic Flooding.host[3].pingApp[0] 	rtt:histogram
field count 2300
field mean 0.00137040956
field stddev 0.00080488913849392
field sum 3.1519419880001
field sqrsum 0.0058088505945062
field min 0.001047213
field max 0.012693637
attr interpolationmode  none
attr title  "ping round-trip time, histogram"
attr unit  s
bin	-INF	0
bin	-0.000434474	0
bin	-0.00023275506666667	0
bin	-3.1036133333333e-05	0
bin	0.0001706828	0
bin	0.00037240173333333	0
bin	0.00057412066666667	0
bin	0.0007758396	0
bin	0.00097755853333333	1809
bin	0.0011792774666667	50
bin	0.0013809964	49
bin	0.0015827153333333	50
bin	0.0017844342666667	54
bin	0.0019861532	43
bin	0.0021878721333333	50
bin	0.0023895910666667	41
bin	0.00259131	41
bin	0.0027930289333333	13
bin	0.0029947478666667	21
bin	0.0031964668	12
bin	0.0033981857333333	13
bin	0.0035999046666667	8
bin	0.0038016236	11
bin	0.0040033425333333	4
bin	0.0042050614666667	3
bin	0.0044067804	4
bin	0.0046084993333333	5
bin	0.0048102182666667	2
bin	0.0050119372	3
bin	0.0052136561333333	1
bin	0.0054153750666667	2
bin	0.005617094	11
scalar Flooding.host[3].pingTestApp[0] 	numOutOfOrderArrivals:last 	-nan
attr interpolationmode  none
attr title  "ping out-of-order arrivals, last"
scalar Flooding.host[3].pingTestApp[0] 	pingRxSeq:count 	0
attr interpolationmode  none
attr title  "ping rx seq, count"
scalar Flooding.host[3].pingTestApp[0] 	pingTxSeq:count 	0
attr interpolationmode  none
attr title  "ping tx seq, count"
scalar Flooding.host[3].pingTestApp[0] 	numLost:last 	-nan
attr interpolationmode  none
attr title  "pings lost, last"
statistic Flooding.host[3].pingTestApp[0] 	rtt:histogram
field count 0
field mean -nan
field stddev -nan
field sum 0
field sqrsum 0
field min -nan
field max -nan
attr interpolationmode  none
attr title  "ping round-trip time, histogram"
attr unit  s
bin	-INF	0
bin	-0.5	0
bin	-0.46666666666667	0
bin	-0.43333333333333	0
bin	-0.4	0
bin	-0.36666666666667	0
bin	-0.33333333333333	0
bin	-0.3	0
bin	-0.26666666666667	0
bin	-0.23333333333333	0
bin	-0.2	0
bin	-0.16666666666667	0
bin	-0.13333333333333	0
bin	-0.1	0
bin	-0.066666666666667	0
bin	-0.033333333333333	0
bin	0	0
bin	0.033333333333333	0
bin	0.066666666666667	0
bin	0.1	0
bin	0.13333333333333	0
bin	0.16666666666667	0
bin	0.2	0
bin	0.23333333333333	0
bin	0.26666666666667	0
bin	0.3	0
bin	0.33333333333333	0
bin	0.36666666666667	0
bin	0.4	0
bin	0.43333333333333	0
bin	0.46666666666667	0
bin	0.5	0
scalar Flooding.host[3].manetrouting 	OLSR_HNA_Messages_(Forwarded) 	0
scalar Flooding.host[3].manetrouting 	OLSR_TC_Messages_(Forwarded) 	739
scalar Flooding.host[3].manetrouting 	OLSR_Total_HELLO 	515
scalar Flooding.host[3].manetrouting 	OLSR_Total_HNA_(originated) 	0
scalar Flooding.host[3].manetrouting 	OLSR_Total_TC 	0
scalar Flooding.host[3].manetrouting 	OLSR_Total_Messages_Sent 	1254
scalar Flooding.host[4].networkLayer.arp 	failedARPResolution:count 	0
attr title  "ARP failed resolutions, count"
scalar Flooding.host[4].networkLayer.arp 	completedARPResolution:count 	13
attr title  "ARP completed resolutions, count"
scalar Flooding.host[4].networkLayer.arp 	initiatedARPResolution:count 	6
attr title  "ARP initiated resolutions, count"
scalar Flooding.host[4].networkLayer.arp 	sentReply:count 	5
attr title  "ARP replies sent, count"
scalar Flooding.host[4].networkLayer.arp 	sentReq:count 	6
attr title  "ARP request sent, count"
scalar Flooding.host[4].lo0.lo 	droppedPkBitError:count 	0
attr interpolationmode  none
attr source  dropPkBitError
attr title  "packets dropped/bit error, count"
scalar Flooding.host[4].lo0.lo 	droppedPkBitError:sum(packetBytes) 	0
attr interpolationmode  none
attr source  dropPkBitError
attr title  "packets dropped/bit error, sum(packetBytes)"
scalar Flooding.host[4].lo0.lo 	rcvdPkFromHL:count 	0
attr interpolationmode  none
attr source  packetReceivedFromUpper
attr title  "packets received from higher layer, count"
scalar Flooding.host[4].lo0.lo 	rcvdPkFromHL:sum(packetBytes) 	0
attr interpolationmode  none
attr source  packetReceivedFromUpper
attr title  "packets received from higher layer, sum(packetBytes)"
scalar Flooding.host[4].lo0.lo 	passedUpPk:count 	0
attr interpolationmode  none
attr source  packetSentToUpper
attr title  "packets passed to higher layer, count"
scalar Flooding.host[4].lo0.lo 	passedUpPk:sum(packetBytes) 	0
attr interpolationmode  none
attr source  packetSentToUpper
attr title  "packets passed to higher layer, sum(packetBytes)"
scalar Flooding.host[4].wlan[0].mgmt 	dataQueueLen:max 	0
attr interpolationmode  sample-hold
attr title  "data queue length, max"
scalar Flooding.host[4].wlan[0].mgmt 	dataQueueLen:timeavg 	0
attr interpolationmode  sample-hold
attr title  "data queue length, timeavg"
scalar Flooding.host[4].wlan[0].mgmt 	dropPkByQueue:count 	0
attr interpolationmode  none
attr source  dropPkByQueue
attr title  "packets dropped by queue, count"
scalar Flooding.host[4].wlan[0].mgmt 	dropPkByQueue:sum(packetBytes) 	0
attr interpolationmode  none
attr source  dropPkByQueue
attr title  "packets dropped by queue, sum(packetBytes)"
scalar Flooding.host[4].wlan[0].mac 	"number of received packets" 	4607
scalar Flooding.host[4].wlan[0].mac 	"number of collisions" 	3871
scalar Flooding.host[4].wlan[0].mac 	"number of internal collisions" 	0
scalar Flooding.host[4].wlan[0].mac 	"number of retry for AC 0" 	13
scalar Flooding.host[4].wlan[0].mac 	"sent and received bits" 	8131392
scalar Flooding.host[4].wlan[0].mac 	"sent packet within AC 0" 	4606
scalar Flooding.host[4].wlan[0].mac 	"sent in TXOP " 	0
scalar Flooding.host[4].wlan[0].mac 	"sentWithoutRetry AC 0" 	4596
scalar Flooding.host[4].wlan[0].mac 	"numGivenUp AC 0" 	0
scalar Flooding.host[4].wlan[0].mac 	"numDropped AC 0" 	0
scalar Flooding.host[4].wlan[0].mac 	rcvdPkFromHL:count 	5260
attr interpolationmode  none
attr source  packetReceivedFromUpper
attr title  "packets received from higher layer, count"
scalar Flooding.host[4].wlan[0].mac 	rcvdPkFromHL:sum(packetBytes) 	1016424
attr interpolationmode  none
attr source  packetReceivedFromUpper
attr title  "packets received from higher layer, sum(packetBytes)"
scalar Flooding.host[4].wlan[0].mac 	passedUpPk:count 	32432
attr interpolationmode  none
attr source  packetSentToUpper
attr title  "packets passed to higher layer, count"
scalar Flooding.host[4].wlan[0].mac 	passedUpPk:sum(packetBytes) 	6450620
attr interpolationmode  none
attr source  packetSentToUpper
attr title  "packets passed to higher layer, sum(packetBytes)"
scalar Flooding.host[4].wlan[0].mac 	rcvdPkFromLL:count 	324628
attr interpolationmode  none
attr source  packetReceivedFromLower
attr title  "packets received from lower layer, count"
scalar Flooding.host[4].wlan[0].mac 	rcvdPkFromLL:sum(packetBytes) 	36057436
attr interpolationmode  none
attr source  packetReceivedFromLower
attr title  "packets received from lower layer, sum(packetBytes)"
scalar Flooding.host[4].wlan[0].mac 	sentDownPk:count 	9880
attr interpolationmode  none
attr source  packetSentToLower
attr title  "packets sent to lower layer, count"
scalar Flooding.host[4].wlan[0].mac 	sentDownPk:sum(packetBytes) 	1083392
attr interpolationmode  none
attr source  packetSentToLower
attr title  "packets sent to lower layer, sum(packetBytes)"
scalar Flooding.host[4].wlan[0].radio 	lossRate:min 	0
attr interpolationmode  backward-sample-hold
attr title  "packet loss rate, min"
scalar Flooding.host[4].wlan[0].radio 	lossRate:max 	0.22
attr interpolationmode  backward-sample-hold
attr title  "packet loss rate, max"
scalar Flooding.host[4].wlan[0].radio 	lossRate:timeavg 	0.010630429301343
attr interpolationmode  backward-sample-hold
attr title  "packet loss rate, timeavg"
statistic Flooding.host[4].wlan[0].radio 	channelNo:histogram
field count 1
field mean 0
field stddev -nan
field sum 0
field sqrsum 0
field min 0
field max 0
attr interpolationmode  sample-hold
attr title  "channel no, histogram"
bin	-INF	0
bin	-0.5	0
bin	-0.46666666666667	0
bin	-0.43333333333333	0
bin	-0.4	0
bin	-0.36666666666667	0
bin	-0.33333333333333	0
bin	-0.3	0
bin	-0.26666666666667	0
bin	-0.23333333333333	0
bin	-0.2	0
bin	-0.16666666666667	0
bin	-0.13333333333333	0
bin	-0.1	0
bin	-0.066666666666667	0
bin	-0.033333333333333	0
bin	0	1
bin	0.033333333333333	0
bin	0.066666666666667	0
bin	0.1	0
bin	0.13333333333333	0
bin	0.16666666666667	0
bin	0.2	0
bin	0.23333333333333	0
bin	0.26666666666667	0
bin	0.3	0
bin	0.33333333333333	0
bin	0.36666666666667	0
bin	0.4	0
bin	0.43333333333333	0
bin	0.46666666666667	0
bin	0.5	0
scalar Flooding.host[4].wlan[0].radio 	bitrate:min 	11000000
attr interpolationmode  sample-hold
attr title  "tx bitrate, min"
attr unit  bps
scalar Flooding.host[4].wlan[0].radio 	bitrate:max 	11000000
attr interpolationmode  sample-hold
attr title  "tx bitrate, max"
attr unit  bps
scalar Flooding.host[4].wlan[0].radio 	bitrate:timeavg 	11000000
attr interpolationmode  sample-hold
attr title  "tx bitrate, timeavg"
attr unit  bps
scalar Flooding.host[4].wlan[0].radio 	radioState:count 	666671
attr interpolationmode  sample-hold
attr title  "radio state (enum), count"
scalar Flooding.host[4].pingApp[0] 	"Pings sent" 	2300
scalar Flooding.host[4].pingApp[0] 	"ping loss rate (%)" 	0
scalar Flooding.host[4].pingApp[0] 	"ping out-of-order rate (%)" 	0
scalar Flooding.host[4].pingApp[0] 	numOutOfOrderArrivals:last 	-nan
attr interpolationmode  none
attr title  "ping out-of-order arrivals, last"
scalar Flooding.host[4].pingApp[0] 	pingRxSeq:count 	2300
attr interpolationmode  none
attr title  "ping rx seq, count"
scalar Flooding.host[4].pingApp[0] 	pingTxSeq:count 	2300
attr interpolationmode  none
attr title  "ping tx seq, count"
scalar Flooding.host[4].pingApp[0] 	numLost:last 	-nan
attr interpolationmode  none
attr title  "pings lost, last"
statistic Flooding.host[4].pingApp[0] 	rtt:histogram
field count 2300
field mean 0.0013550765126087
field stddev 0.00071109400957809
field sum 3.116675979
field sqrsum 0.0053858345499173
field min 0.001078326
field max 0.00864581
attr interpolationmode  none
attr title  "ping round-trip time, histogram"
attr unit  s
bin	-INF	0
bin	-0.0004005615	0
bin	-0.0002033765	0
bin	-6.1915e-06	0
bin	0.0001909935	0
bin	0.0003881785	0
bin	0.0005853635	0
bin	0.0007825485	0
bin	0.0009797335	1807
bin	0.0011769185	46
bin	0.0013741035	59
bin	0.0015712885	46
bin	0.0017684735	58
bin	0.0019656585	47
bin	0.0021628435	45
bin	0.0023600285	50
bin	0.0025572135	19
bin	0.0027543985	14
bin	0.0029515835	18
bin	0.0031487685	23
bin	0.0033459535	14
bin	0.0035431385	12
bin	0.0037403235	11
bin	0.0039375085	5
bin	0.0041346935	1
bin	0.0043318785	2
bin	0.0045290635	4
bin	0.0047262485	4
bin	0.0049234335	3
bin	0.0051206185	2
bin	0.0053178035	3
bin	0.0055149885	7
scalar Flooding.host[4].pingTestApp[0] 	numOutOfOrderArrivals:last 	-nan
attr interpolationmode  none
attr title  "ping out-of-order arrivals, last"
scalar Flooding.host[4].pingTestApp[0] 	pingRxSeq:count 	0
attr interpolationmode  none
attr title  "ping rx seq, count"
scalar Flooding.host[4].pingTestApp[0] 	pingTxSeq:count 	0
attr interpolationmode  none
attr title  "ping tx seq, count"
scalar Flooding.host[4].pingTestApp[0] 	numLost:last 	-nan
attr interpolationmode  none
attr title  "pings lost, last"
statistic Flooding.host[4].pingTestApp[0] 	rtt:histogram
field count 0
field mean -nan
field stddev -nan
field sum 0
field sqrsum 0
field min -nan
field max -nan
attr interpolationmode  none
attr title  "ping round-trip time, histogram"
attr unit  s
bin	-INF	0
bin	-0.5	0
bin	-0.46666666666667	0
bin	-0.43333333333333	0
bin	-0.4	0
bin	-0.36666666666667	0
bin	-0.33333333333333	0
bin	-0.3	0
bin	-0.26666666666667	0
bin	-0.23333333333333	0
bin	-0.2	0
bin	-0.16666666666667	0
bin	-0.13333333333333	0
bin	-0.1	0
bin	-0.066666666666667	0
bin	-0.033333333333333	0
bin	0	0
bin	0.033333333333333	0
bin	0.066666666666667	0
bin	0.1	0
bin	0.13333333333333	0
bin	0.16666666666667	0
bin	0.2	0
bin	0.23333333333333	0
bin	0.26666666666667	0
bin	0.3	0
bin	0.33333333333333	0
bin	0.36666666666667	0
bin	0.4	0
bin	0.43333333333333	0
bin	0.46666666666667	0
bin	0.5	0
scalar Flooding.host[4].manetrouting 	OLSR_HNA_Messages_(Forwarded) 	0
scalar Flooding.host[4].manetrouting 	OLSR_TC_Messages_(Forwarded) 	739
scalar Flooding.host[4].manetrouting 	OLSR_Total_HELLO 	515
scalar Flooding.host[4].manetrouting 	OLSR_Total_HNA_(originated) 	0
scalar Flooding.host[4].manetrouting 	OLSR_Total_TC 	0
scalar Flooding.host[4].manetrouting 	OLSR_Total_Messages_Sent 	1254
scalar Flooding.host[5].networkLayer.arp 	failedARPResolution:count 	0
attr title  "ARP failed resolutions, count"
scalar Flooding.host[5].networkLayer.arp 	completedARPResolution:count 	41
attr title  "ARP completed resolutions, count"
scalar Flooding.host[5].networkLayer.arp 	initiatedARPResolution:count 	1
attr title  "ARP initiated resolutions, count"
scalar Flooding.host[5].networkLayer.arp 	sentReply:count 	11
attr title  "ARP replies sent, count"
scalar Flooding.host[5].networkLayer.arp 	sentReq:count 	1
attr title  "ARP request sent, count"
scalar Flooding.host[5].lo0.lo 	droppedPkBitError:count 	0
attr interpolationmode  none
attr source  dropPkBitError
attr title  "packets dropped/bit error, count"
scalar Flooding.host[5].lo0.lo 	droppedPkBitError:sum(packetBytes) 	0
attr interpolationmode  none
attr source  dropPkBitError
attr title  "packets dropped/bit error, sum(packetBytes)"
scalar Flooding.host[5].lo0.lo 	rcvdPkFromHL:count 	0
attr interpolationmode  none
attr source  packetReceivedFromUpper
attr title  "packets received from higher layer, count"
scalar Flooding.host[5].lo0.lo 	rcvdPkFromHL:sum(packetBytes) 	0
attr interpolationmode  none
attr source  packetReceivedFromUpper
attr title  "packets received from higher layer, sum(packetBytes)"
scalar Flooding.host[5].lo0.lo 	passedUpPk:count 	0
attr interpolationmode  none
attr source  packetSentToUpper
attr title  "packets passed to higher layer, count"
scalar Flooding.host[5].lo0.lo 	passedUpPk:sum(packetBytes) 	0
attr interpolationmode  none
attr source  packetSentToUpper
attr title  "packets passed to higher layer, sum(packetBytes)"
scalar Flooding.host[5].wlan[0].mgmt 	dataQueueLen:max 	0
attr interpolationmode  sample-hold
attr title  "data queue length, max"
scalar Flooding.host[5].wlan[0].mgmt 	dataQueueLen:timeavg 	0
attr interpolationmode  sample-hold
attr title  "data queue length, timeavg"
scalar Flooding.host[5].wlan[0].mgmt 	dropPkByQueue:count 	0
attr interpolationmode  none
attr source  dropPkByQueue
attr title  "packets dropped by queue, count"
scalar Flooding.host[5].wlan[0].mgmt 	dropPkByQueue:sum(packetBytes) 	0
attr interpolationmode  none
attr source  dropPkByQueue
attr title  "packets dropped by queue, sum(packetBytes)"
scalar Flooding.host[5].wlan[0].mac 	"number of received packets" 	4600
scalar Flooding.host[5].wlan[0].mac 	"number of collisions" 	542
scalar Flooding.host[5].wlan[0].mac 	"number of internal collisions" 	0
scalar Flooding.host[5].wlan[0].mac 	"number of retry for AC 0" 	350
scalar Flooding.host[5].wlan[0].mac 	"sent and received bits" 	8038784
scalar Flooding.host[5].wlan[0].mac 	"sent packet within AC 0" 	4610
scalar Flooding.host[5].wlan[0].mac 	"sent in TXOP " 	0
scalar Flooding.host[5].wlan[0].mac 	"sentWithoutRetry AC 0" 	4448
scalar Flooding.host[5].wlan[0].mac 	"numGivenUp AC 0" 	0
scalar Flooding.host[5].wlan[0].mac 	"numDropped AC 0" 	0
scalar Flooding.host[5].wlan[0].mac 	rcvdPkFromHL:count 	5250
attr interpolationmode  none
attr source  packetReceivedFromUpper
attr title  "packets received from higher layer, count"
scalar Flooding.host[5].wlan[0].mac 	rcvdPkFromHL:sum(packetBytes) 	1004848
attr interpolationmode  none
attr source  packetReceivedFromUpper
attr title  "packets received from higher layer, sum(packetBytes)"
scalar Flooding.host[5].wlan[0].mac 	passedUpPk:count 	28520
attr interpolationmode  none
attr source  packetSentToUpper
attr title  "packets passed to higher layer, count"
scalar Flooding.host[5].wlan[0].mac 	passedUpPk:sum(packetBytes) 	5726244
attr interpolationmode  none
attr source  packetSentToUpper
attr title  "packets passed to higher layer, sum(packetBytes)"
scalar Flooding.host[5].wlan[0].mac 	rcvdPkFromLL:count 	266133
attr interpolationmode  none
attr source  packetReceivedFromLower
attr title  "packets received from lower layer, count"
scalar Flooding.host[5].wlan[0].mac 	rcvdPkFromLL:sum(packetBytes) 	29792106
attr interpolationmode  none
attr source  packetReceivedFromLower
attr title  "packets received from lower layer, sum(packetBytes)"
scalar Flooding.host[5].wlan[0].mac 	sentDownPk:count 	10200
attr interpolationmode  none
attr source  packetSentToLower
attr title  "packets sent to lower layer, count"
scalar Flooding.host[5].wlan[0].mac 	sentDownPk:sum(packetBytes) 	1135748
attr interpolationmode  none
attr source  packetSentToLower
attr title  "packets sent to lower layer, sum(packetBytes)"
scalar Flooding.host[5].wlan[0].radio 	lossRate:min 	0
attr interpolationmode  backward-sample-hold
attr title  "packet loss rate, min"
scalar Flooding.host[5].wlan[0].radio 	lossRate:max 	0.12
attr interpolationmode  backward-sample-hold
attr title  "packet loss rate, max"
scalar Flooding.host[5].wlan[0].radio 	lossRate:timeavg 	0.0019254416320235
attr interpolationmode  backward-sample-hold
attr title  "packet loss rate, timeavg"
statistic Flooding.host[5].wlan[0].radio 	channelNo:histogram
field count 1
field mean 0
field stddev -nan
field sum 0
field sqrsum 0
field min 0
field max 0
attr interpolationmode  sample-hold
attr title  "channel no, histogram"
bin	-INF	0
bin	-0.5	0
bin	-0.46666666666667	0
bin	-0.43333333333333	0
bin	-0.4	0
bin	-0.36666666666667	0
bin	-0.33333333333333	0
bin	-0.3	0
bin	-0.26666666666667	0
bin	-0.23333333333333	0
bin	-0.2	0
bin	-0.16666666666667	0
bin	-0.13333333333333	0
bin	-0.1	0
bin	-0.066666666666667	0
bin	-0.033333333333333	0
bin	0	1
bin	0.033333333333333	0
bin	0.066666666666667	0
bin	0.1	0
bin	0.13333333333333	0
bin	0.16666666666667	0
bin	0.2	0
bin	0.23333333333333	0
bin	0.26666666666667	0
bin	0.3	0
bin	0.33333333333333	0
bin	0.36666666666667	0
bin	0.4	0
bin	0.43333333333333	0
bin	0.46666666666667	0
bin	0.5	0
scalar Flooding.host[5].wlan[0].radio 	bitrate:min 	11000000
attr interpolationmode  sample-hold
attr title  "tx bitrate, min"
attr unit  bps
scalar Flooding.host[5].wlan[0].radio 	bitrate:max 	11000000
attr interpolationmode  sample-hold
attr title  "tx bitrate, max"
attr unit  bps
scalar Flooding.host[5].wlan[0].radio 	bitrate:timeavg 	11000000
attr interpolationmode  sample-hold
attr title  "tx bitrate, timeavg"
attr unit  bps
scalar Flooding.host[5].wlan[0].radio 	radioState:count 	552461
attr interpolationmode  sample-hold
attr title  "radio state (enum), count"
scalar Flooding.host[5].pingApp[0] 	"Pings sent" 	2300
scalar Flooding.host[5].pingApp[0] 	"ping loss rate (%)" 	0
scalar Flooding.host[5].pingApp[0] 	"ping out-of-order rate (%)" 	0
scalar Flooding.host[5].pingApp[0] 	numOutOfOrderArrivals:last 	-nan
attr interpolationmode  none
attr title  "ping out-of-order arrivals, last"
scalar Flooding.host[5].pingApp[0] 	pingRxSeq:count 	2300
attr interpolationmode  none
attr title  "ping rx seq, count"
scalar Flooding.host[5].pingApp[0] 	pingTxSeq:count 	2300
attr interpolationmode  none
attr title  "ping tx seq, count"
scalar Flooding.host[5].pingApp[0] 	numLost:last 	-nan
attr interpolationmode  none
attr title  "pings lost, last"
statistic Flooding.host[5].pingApp[0] 	rtt:histogram
field count 2300
field mean 0.0014233437095652
field stddev 0.0011014503894455
field sum 3.273690532
field sqrsum 0.007448717441767
field min 0.001081546
field max 0.023463733
attr interpolationmode  none
attr title  "ping round-trip time, histogram"
attr unit  s
bin	-INF	0
bin	-0.000839208	0
bin	-0.00058310746666667	0
bin	-0.00032700693333333	0
bin	-7.09064e-05	0
bin	0.00018519413333333	0
bin	0.00044129466666667	0
bin	0.0006973952	0
bin	0.00095349573333333	1855
bin	0.0012095962666667	46
bin	0.0014656968	58
bin	0.0017217973333333	54
bin	0.0019778978666667	47
bin	0.0022339984	58
bin	0.0024900989333333	31
bin	0.0027461994666667	23
bin	0.0030023	24
bin	0.0032584005333333	15
bin	0.0035145010666667	10
bin	0.0037706016	13
bin	0.0040267021333333	6
bin	0.0042828026666667	7
bin	0.0045389032	3
bin	0.0047950037333333	6
bin	0.0050511042666667	5
bin	0.0053072048	7
bin	0.0055633053333333	3
bin	0.0058194058666667	4
bin	0.0060755064	3
bin	0.0063316069333333	4
bin	0.0065877074666667	2
bin	0.006843808	16
scalar Flooding.host[5].pingTestApp[0] 	numOutOfOrderArrivals:last 	-nan
attr interpolationmode  none
attr title  "ping out-of-order arrivals, last"
scalar Flooding.host[5].pingTestApp[0] 	pingRxSeq:count 	0
attr interpolationmode  none
attr title  "ping rx seq, count"
scalar Flooding.host[5].pingTestApp[0] 	pingTxSeq:count 	0
attr interpolationmode  none
attr title  "ping tx seq, count"
scalar Flooding.host[5].pingTestApp[0] 	numLost:last 	-nan
attr interpolationmode  none
attr title  "pings lost, last"
statistic Flooding.host[5].pingTestApp[0] 	rtt:histogram
field count 0
field mean -nan
field stddev -nan
field sum 0
field sqrsum 0
field min -nan
field max -nan
attr interpolationmode  none
attr title  "ping round-trip time, histogram"
attr unit  s
bin	-INF	0
bin	-0.5	0
bin	-0.46666666666667	0
bin	-0.43333333333333	0
bin	-0.4	0
bin	-0.36666666666667	0
bin	-0.33333333333333	0
bin	-0.3	0
bin	-0.26666666666667	0
bin	-0.23333333333333	0
bin	-0.2	0
bin	-0.16666666666667	0
bin	-0.13333333333333	0
bin	-0.1	0
bin	-0.066666666666667	0
bin	-0.033333333333333	0
bin	0	0
bin	0.033333333333333	0
bin	0.066666666666667	0
bin	0.1	0
bin	0.13333333333333	0
bin	0.16666666666667	0
bin	0.2	0
bin	0.23333333333333	0
bin	0.26666666666667	0
bin	0.3	0
bin	0.33333333333333	0
bin	0.36666666666667	0
bin	0.4	0
bin	0.43333333333333	0
bin	0.46666666666667	0
bin	0.5	0
scalar Flooding.host[5].manetrouting 	OLSR_HNA_Messages_(Forwarded) 	0
scalar Flooding.host[5].manetrouting 	OLSR_TC_Messages_(Forwarded) 	739
scalar Flooding.host[5].manetrouting 	OLSR_Total_HELLO 	513
scalar Flooding.host[5].manetrouting 	OLSR_Total_HNA_(originated) 	0
scalar Flooding.host[5].manetrouting 	OLSR_Total_TC 	0
scalar Flooding.host[5].manetrouting 	OLSR_Total_Messages_Sent 	1252
scalar Flooding.host[6].networkLayer.arp 	failedARPResolution:count 	0
attr title  "ARP failed resolutions, count"
scalar Flooding.host[6].networkLayer.arp 	completedARPResolution:count 	13
attr title  "ARP completed resolutions, count"
scalar Flooding.host[6].networkLayer.arp 	initiatedARPResolution:count 	8
attr title  "ARP initiated resolutions, count"
scalar Flooding.host[6].networkLayer.arp 	sentReply:count 	2
attr title  "ARP replies sent, count"
scalar Flooding.host[6].networkLayer.arp 	sentReq:count 	8
attr title  "ARP request sent, count"
scalar Flooding.host[6].lo0.lo 	droppedPkBitError:count 	0
attr interpolationmode  none
attr source  dropPkBitError
attr title  "packets dropped/bit error, count"
scalar Flooding.host[6].lo0.lo 	droppedPkBitError:sum(packetBytes) 	0
attr interpolationmode  none
attr source  dropPkBitError
attr title  "packets dropped/bit error, sum(packetBytes)"
scalar Flooding.host[6].lo0.lo 	rcvdPkFromHL:count 	0
attr interpolationmode  none
attr source  packetReceivedFromUpper
attr title  "packets received from higher layer, count"
scalar Flooding.host[6].lo0.lo 	rcvdPkFromHL:sum(packetBytes) 	0
attr interpolationmode  none
attr source  packetReceivedFromUpper
attr title  "packets received from higher layer, sum(packetBytes)"
scalar Flooding.host[6].lo0.lo 	passedUpPk:count 	0
attr interpolationmode  none
attr source  packetSentToUpper
attr title  "packets passed to higher layer, count"
scalar Flooding.host[6].lo0.lo 	passedUpPk:sum(packetBytes) 	0
attr interpolationmode  none
attr source  packetSentToUpper
attr title  "packets passed to higher layer, sum(packetBytes)"
scalar Flooding.host[6].wlan[0].mgmt 	dataQueueLen:max 	0
attr interpolationmode  sample-hold
attr title  "data queue length, max"
scalar Flooding.host[6].wlan[0].mgmt 	dataQueueLen:timeavg 	0
attr interpolationmode  sample-hold
attr title  "data queue length, timeavg"
scalar Flooding.host[6].wlan[0].mgmt 	dropPkByQueue:count 	0
attr interpolationmode  none
attr source  dropPkByQueue
attr title  "packets dropped by queue, count"
scalar Flooding.host[6].wlan[0].mgmt 	dropPkByQueue:sum(packetBytes) 	0
attr interpolationmode  none
attr source  dropPkByQueue
attr title  "packets dropped by queue, sum(packetBytes)"
scalar Flooding.host[6].wlan[0].mac 	"number of received packets" 	4603
scalar Flooding.host[6].wlan[0].mac 	"number of collisions" 	471
scalar Flooding.host[6].wlan[0].mac 	"number of internal collisions" 	0
scalar Flooding.host[6].wlan[0].mac 	"number of retry for AC 0" 	590
scalar Flooding.host[6].wlan[0].mac 	"sent and received bits" 	8476608
scalar Flooding.host[6].wlan[0].mac 	"sent packet within AC 0" 	4597
scalar Flooding.host[6].wlan[0].mac 	"sent in TXOP " 	0
scalar Flooding.host[6].wlan[0].mac 	"sentWithoutRetry AC 0" 	4389
scalar Flooding.host[6].wlan[0].mac 	"numGivenUp AC 0" 	1
scalar Flooding.host[6].wlan[0].mac 	"numDropped AC 0" 	0
scalar Flooding.host[6].wlan[0].mac 	rcvdPkFromHL:count 	5805
attr interpolationmode  none
attr source  packetReceivedFromUpper
attr title  "packets received from higher layer, count"
scalar Flooding.host[6].wlan[0].mac 	rcvdPkFromHL:sum(packetBytes) 	1059766
attr interpolationmode  none
attr source  packetReceivedFromUpper
attr title  "packets received from higher layer, sum(packetBytes)"
scalar Flooding.host[6].wlan[0].mac 	passedUpPk:count 	27283
attr interpolationmode  none
attr source  packetSentToUpper
attr title  "packets passed to higher layer, count"
scalar Flooding.host[6].wlan[0].mac 	passedUpPk:sum(packetBytes) 	5470326
attr interpolationmode  none
attr source  packetSentToUpper
attr title  "packets passed to higher layer, sum(packetBytes)"
scalar Flooding.host[6].wlan[0].mac 	rcvdPkFromLL:count 	226639
attr interpolationmode  none
attr source  packetReceivedFromLower
attr title  "packets received from lower layer, count"
scalar Flooding.host[6].wlan[0].mac 	rcvdPkFromLL:sum(packetBytes) 	25529754
attr interpolationmode  none
attr source  packetReceivedFromLower
attr title  "packets received from lower layer, sum(packetBytes)"
scalar Flooding.host[6].wlan[0].mac 	sentDownPk:count 	10998
attr interpolationmode  none
attr source  packetSentToLower
attr title  "packets sent to lower layer, count"
scalar Flooding.host[6].wlan[0].mac 	sentDownPk:sum(packetBytes) 	1236308
attr interpolationmode  none
attr source  packetSentToLower
attr title  "packets sent to lower layer, sum(packetBytes)"
scalar Flooding.host[6].wlan[0].radio 	lossRate:min 	0
attr interpolationmode  backward-sample-hold
attr title  "packet loss rate, min"
scalar Flooding.host[6].wlan[0].radio 	lossRate:max 	0.12
attr interpolationmode  backward-sample-hold
attr title  "packet loss rate, max"
scalar Flooding.host[6].wlan[0].radio 	lossRate:timeavg 	0.0019800756022639
attr interpolationmode  backward-sample-hold
attr title  "packet loss rate, timeavg"
statistic Flooding.host[6].wlan[0].radio 	channelNo:histogram
field count 1
field mean 0
field stddev -nan
field sum 0
field sqrsum 0
field min 0
field max 0
attr interpolationmode  sample-hold
attr title  "channel no, histogram"
bin	-INF	0
bin	-0.5	0
bin	-0.46666666666667	0
bin	-0.43333333333333	0
bin	-0.4	0
bin	-0.36666666666667	0
bin	-0.33333333333333	0
bin	-0.3	0
bin	-0.26666666666667	0
bin	-0.23333333333333	0
bin	-0.2	0
bin	-0.16666666666667	0
bin	-0.13333333333333	0
bin	-0.1	0
bin	-0.066666666666667	0
bin	-0.033333333333333	0
bin	0	1
bin	0.033333333333333	0
bin	0.066666666666667	0
bin	0.1	0
bin	0.13333333333333	0
bin	0.16666666666667	0
bin	0.2	0
bin	0.23333333333333	0
bin	0.26666666666667	0
bin	0.3	0
bin	0.33333333333333	0
bin	0.36666666666667	0
bin	0.4	0
bin	0.43333333333333	0
bin	0.46666666666667	0
bin	0.5	0
scalar Flooding.host[6].wlan[0].radio 	bitrate:min 	11000000
attr interpolationmode  sample-hold
attr title  "tx bitrate, min"
attr unit  bps
scalar Flooding.host[6].wlan[0].radio 	bitrate:max 	11000000
attr interpolationmode  sample-hold
attr title  "tx bitrate, max"
attr unit  bps
scalar Flooding.host[6].wlan[0].radio 	bitrate:timeavg 	11000000
attr interpolationmode  sample-hold
attr title  "tx bitrate, timeavg"
attr unit  bps
scalar Flooding.host[6].wlan[0].radio 	radioState:count 	475290
attr interpolationmode  sample-hold
attr title  "radio state (enum), count"
scalar Flooding.host[6].pingApp[0] 	"Pings sent" 	2296
scalar Flooding.host[6].pingApp[0] 	"ping loss rate (%)" 	0.043554006968641
scalar Flooding.host[6].pingApp[0] 	"ping out-of-order rate (%)" 	0
scalar Flooding.host[6].pingApp[0] 	numOutOfOrderArrivals:last 	-nan
attr interpolationmode  none
attr title  "ping out-of-order arrivals, last"
scalar Flooding.host[6].pingApp[0] 	pingRxSeq:count 	2295
attr interpolationmode  none
attr title  "ping rx seq, count"
scalar Flooding.host[6].pingApp[0] 	pingTxSeq:count 	2296
attr interpolationmode  none
attr title  "ping tx seq, count"
scalar Flooding.host[6].pingApp[0] 	numLost:last 	1
attr interpolationmode  none
attr title  "pings lost, last"
statistic Flooding.host[6].pingApp[0] 	rtt:histogram
field count 2295
field mean 0.0016079831311546
field stddev 0.0016359085551624
field sum 3.6903212859999
field sqrsum 0.012073169837587
field min 0.001062121
field max 0.019481013
attr interpolationmode  none
attr title  "ping round-trip time, histogram"
attr unit  s
bin	-INF	0
bin	-0.0033949665	0
bin	-0.0027984197666667	0
bin	-0.0022018730333333	0
bin	-0.0016053263	0
bin	-0.0010087795666667	0
bin	-0.00041223283333333	0
bin	0.0001843139	0
bin	0.00078086063333333	1826
bin	0.0013774073666667	133
bin	0.0019739541	98
bin	0.0025705008333333	70
bin	0.0031670475666667	39
bin	0.0037635943	25
bin	0.0043601410333333	17
bin	0.0049566877666667	10
bin	0.0055532345	13
bin	0.0061497812333333	4
bin	0.0067463279666667	10
bin	0.0073428747	8
bin	0.0079394214333333	5
bin	0.0085359681666667	7
bin	0.0091325149	4
bin	0.0097290616333333	8
bin	0.010325608366667	1
bin	0.0109221551	4
bin	0.011518701833333	3
bin	0.012115248566667	1
bin	0.0127117953	1
bin	0.013308342033333	3
bin	0.013904888766667	0
bin	0.0145014355	5
scalar Flooding.host[6].pingTestApp[0] 	numOutOfOrderArrivals:last 	-nan
attr interpolationmode  none
attr title  "ping out-of-order arrivals, last"
scalar Flooding.host[6].pingTestApp[0] 	pingRxSeq:count 	0
attr interpolationmode  none
attr title  "ping rx seq, count"
scalar Flooding.host[6].pingTestApp[0] 	pingTxSeq:count 	0
attr interpolationmode  none
attr title  "ping tx seq, count"
scalar Flooding.host[6].pingTestApp[0] 	numLost:last 	-nan
attr interpolationmode  none
attr title  "pings lost, last"
statistic Flooding.host[6].pingTestApp[0] 	rtt:histogram
field count 0
field mean -nan
field stddev -nan
field sum 0
field sqrsum 0
field min -nan
field max -nan
attr interpolationmode  none
attr title  "ping round-trip time, histogram"
attr unit  s
bin	-INF	0
bin	-0.5	0
bin	-0.46666666666667	0
bin	-0.43333333333333	0
bin	-0.4	0
bin	-0.36666666666667	0
bin	-0.33333333333333	0
bin	-0.3	0
bin	-0.26666666666667	0
bin	-0.23333333333333	0
bin	-0.2	0
bin	-0.16666666666667	0
bin	-0.13333333333333	0
bin	-0.1	0
bin	-0.066666666666667	0
bin	-0.033333333333333	0
bin	0	0
bin	0.033333333333333	0
bin	0.066666666666667	0
bin	0.1	0
bin	0.13333333333333	0
bin	0.16666666666667	0
bin	0.2	0
bin	0.23333333333333	0
bin	0.26666666666667	0
bin	0.3	0
bin	0.33333333333333	0
bin	0.36666666666667	0
bin	0.4	0
bin	0.43333333333333	0
bin	0.46666666666667	0
bin	0.5	0
scalar Flooding.host[6].manetrouting 	OLSR_HNA_Messages_(Forwarded) 	0
scalar Flooding.host[6].manetrouting 	OLSR_TC_Messages_(Forwarded) 	569
scalar Flooding.host[6].manetrouting 	OLSR_Total_HELLO 	514
scalar Flooding.host[6].manetrouting 	OLSR_Total_HNA_(originated) 	0
scalar Flooding.host[6].manetrouting 	OLSR_Total_TC 	189
scalar Flooding.host[6].manetrouting 	OLSR_Total_Messages_Sent 	1272
scalar Flooding.host[7].networkLayer.arp 	failedARPResolution:count 	0
attr title  "ARP failed resolutions, count"
scalar Flooding.host[7].networkLayer.arp 	completedARPResolution:count 	12
attr title  "ARP completed resolutions, count"
scalar Flooding.host[7].networkLayer.arp 	initiatedARPResolution:count 	11
attr title  "ARP initiated resolutions, count"
scalar Flooding.host[7].networkLayer.arp 	sentReply:count 	1
attr title  "ARP replies sent, count"
scalar Flooding.host[7].networkLayer.arp 	sentReq:count 	11
attr title  "ARP request sent, count"
scalar Flooding.host[7].lo0.lo 	droppedPkBitError:count 	0
attr interpolationmode  none
attr source  dropPkBitError
attr title  "packets dropped/bit error, count"
scalar Flooding.host[7].lo0.lo 	droppedPkBitError:sum(packetBytes) 	0
attr interpolationmode  none
attr source  dropPkBitError
attr title  "packets dropped/bit error, sum(packetBytes)"
scalar Flooding.host[7].lo0.lo 	rcvdPkFromHL:count 	0
attr interpolationmode  none
attr source  packetReceivedFromUpper
attr title  "packets received from higher layer, count"
scalar Flooding.host[7].lo0.lo 	rcvdPkFromHL:sum(packetBytes) 	0
attr interpolationmode  none
attr source  packetReceivedFromUpper
attr title  "packets received from higher layer, sum(packetBytes)"
scalar Flooding.host[7].lo0.lo 	passedUpPk:count 	0
attr interpolationmode  none
attr source  packetSentToUpper
attr title  "packets passed to higher layer, count"
scalar Flooding.host[7].lo0.lo 	passedUpPk:sum(packetBytes) 	0
attr interpolationmode  none
attr source  packetSentToUpper
attr title  "packets passed to higher layer, sum(packetBytes)"
scalar Flooding.host[7].wlan[0].mgmt 	dataQueueLen:max 	0
attr interpolationmode  sample-hold
attr title  "data queue length, max"
scalar Flooding.host[7].wlan[0].mgmt 	dataQueueLen:timeavg 	0
attr interpolationmode  sample-hold
attr title  "data queue length, timeavg"
scalar Flooding.host[7].wlan[0].mgmt 	dropPkByQueue:count 	0
attr interpolationmode  none
attr source  dropPkByQueue
attr title  "packets dropped by queue, count"
scalar Flooding.host[7].wlan[0].mgmt 	dropPkByQueue:sum(packetBytes) 	0
attr interpolationmode  none
attr source  dropPkByQueue
attr title  "packets dropped by queue, sum(packetBytes)"
scalar Flooding.host[7].wlan[0].mac 	"number of received packets" 	4608
scalar Flooding.host[7].wlan[0].mac 	"number of collisions" 	692
scalar Flooding.host[7].wlan[0].mac 	"number of internal collisions" 	0
scalar Flooding.host[7].wlan[0].mac 	"number of retry for AC 0" 	5
scalar Flooding.host[7].wlan[0].mac 	"sent and received bits" 	8044912
scalar Flooding.host[7].wlan[0].mac 	"sent packet within AC 0" 	4598
scalar Flooding.host[7].wlan[0].mac 	"sent in TXOP " 	0
scalar Flooding.host[7].wlan[0].mac 	"sentWithoutRetry AC 0" 	4593
scalar Flooding.host[7].wlan[0].mac 	"numGivenUp AC 0" 	0
scalar Flooding.host[7].wlan[0].mac 	"numDropped AC 0" 	0
scalar Flooding.host[7].wlan[0].mac 	rcvdPkFromHL:count 	5257
attr interpolationmode  none
attr source  packetReceivedFromUpper
attr title  "packets received from higher layer, count"
scalar Flooding.host[7].wlan[0].mac 	rcvdPkFromHL:sum(packetBytes) 	1005614
attr interpolationmode  none
attr source  packetReceivedFromUpper
attr title  "packets received from higher layer, sum(packetBytes)"
scalar Flooding.host[7].wlan[0].mac 	passedUpPk:count 	29111
attr interpolationmode  none
attr source  packetSentToUpper
attr title  "packets passed to higher layer, count"
scalar Flooding.host[7].wlan[0].mac 	passedUpPk:sum(packetBytes) 	5797990
attr interpolationmode  none
attr source  packetSentToUpper
attr title  "packets passed to higher layer, sum(packetBytes)"
scalar Flooding.host[7].wlan[0].mac 	rcvdPkFromLL:count 	265612
attr interpolationmode  none
attr source  packetReceivedFromLower
attr title  "packets received from lower layer, count"
scalar Flooding.host[7].wlan[0].mac 	rcvdPkFromLL:sum(packetBytes) 	29713112
attr interpolationmode  none
attr source  packetReceivedFromLower
attr title  "packets received from lower layer, sum(packetBytes)"
scalar Flooding.host[7].wlan[0].mac 	sentDownPk:count 	9870
attr interpolationmode  none
attr source  packetSentToLower
attr title  "packets sent to lower layer, count"
scalar Flooding.host[7].wlan[0].mac 	sentDownPk:sum(packetBytes) 	1071076
attr interpolationmode  none
attr source  packetSentToLower
attr title  "packets sent to lower layer, sum(packetBytes)"
scalar Flooding.host[7].wlan[0].radio 	lossRate:min 	0
attr interpolationmode  backward-sample-hold
attr title  "packet loss rate, min"
scalar Flooding.host[7].wlan[0].radio 	lossRate:max 	0.12
attr interpolationmode  backward-sample-hold
attr title  "packet loss rate, max"
scalar Flooding.host[7].wlan[0].radio 	lossRate:timeavg 	0.0024234010192393
attr interpolationmode  backward-sample-hold
attr title  "packet loss rate, timeavg"
statistic Flooding.host[7].wlan[0].radio 	channelNo:histogram
field count 1
field mean 0
field stddev -nan
field sum 0
field sqrsum 0
field min 0
field max 0
attr interpolationmode  sample-hold
attr title  "channel no, histogram"
bin	-INF	0
bin	-0.5	0
bin	-0.46666666666667	0
bin	-0.43333333333333	0
bin	-0.4	0
bin	-0.36666666666667	0
bin	-0.33333333333333	0
bin	-0.3	0
bin	-0.26666666666667	0
bin	-0.23333333333333	0
bin	-0.2	0
bin	-0.16666666666667	0
bin	-0.13333333333333	0
bin	-0.1	0
bin	-0.066666666666667	0
bin	-0.033333333333333	0
bin	0	1
bin	0.033333333333333	0
bin	0.066666666666667	0
bin	0.1	0
bin	0.13333333333333	0
bin	0.16666666666667	0
bin	0.2	0
bin	0.23333333333333	0
bin	0.26666666666667	0
bin	0.3	0
bin	0.33333333333333	0
bin	0.36666666666667	0
bin	0.4	0
bin	0.43333333333333	0
bin	0.46666666666667	0
bin	0.5	0
scalar Flooding.host[7].wlan[0].radio 	bitrate:min 	11000000
attr interpolationmode  sample-hold
attr title  "tx bitrate, min"
attr unit  bps
scalar Flooding.host[7].wlan[0].radio 	bitrate:max 	11000000
attr interpolationmode  sample-hold
attr title  "tx bitrate, max"
attr unit  bps
scalar Flooding.host[7].wlan[0].radio 	bitrate:timeavg 	11000000
attr interpolationmode  sample-hold
attr title  "tx bitrate, timeavg"
attr unit  bps
scalar Flooding.host[7].wlan[0].radio 	radioState:count 	550717
attr interpolationmode  sample-hold
attr title  "radio state (enum), count"
scalar Flooding.host[7].pingApp[0] 	"Pings sent" 	2297
scalar Flooding.host[7].pingApp[0] 	"ping loss rate (%)" 	0
scalar Flooding.host[7].pingApp[0] 	"ping out-of-order rate (%)" 	0
scalar Flooding.host[7].pingApp[0] 	numOutOfOrderArrivals:last 	-nan
attr interpolationmode  none
attr title  "ping out-of-order arrivals, last"
scalar Flooding.host[7].pingApp[0] 	pingRxSeq:count 	2297
attr interpolationmode  none
attr title  "ping rx seq, count"
scalar Flooding.host[7].pingApp[0] 	pingTxSeq:count 	2297
attr interpolationmode  none
attr title  "ping tx seq, count"
scalar Flooding.host[7].pingApp[0] 	numLost:last 	-nan
attr interpolationmode  none
attr title  "pings lost, last"
statistic Flooding.host[7].pingApp[0] 	rtt:histogram
field count 2297
field mean 0.0012922849804093
field stddev 0.00061238528628696
field sum 2.9683786000001
field sqrsum 0.0046970272173727
field min 0.001076706
field max 0.014115185
attr interpolationmode  none
attr title  "ping round-trip time, histogram"
attr unit  s
bin	-INF	0
bin	-0.001045783	0
bin	-0.00076278446666667	0
bin	-0.00047978593333333	0
bin	-0.0001967874	0
bin	8.6211133333334e-05	0
bin	0.00036920966666667	0
bin	0.0006522082	0
bin	0.00093520673333333	1831
bin	0.0012182052666667	111
bin	0.0015012038	94
bin	0.0017842023333333	71
bin	0.0020672008666667	55
bin	0.0023501994	44
bin	0.0026331979333333	19
bin	0.0029161964666667	26
bin	0.003199195	23
bin	0.0034821935333333	5
bin	0.0037651920666667	7
bin	0.0040481906	0
bin	0.0043311891333333	3
bin	0.0046141876666667	2
bin	0.0048971862	0
bin	0.0051801847333333	2
bin	0.0054631832666667	0
bin	0.0057461818	0
bin	0.0060291803333333	1
bin	0.0063121788666667	0
bin	0.0065951774	2
bin	0.0068781759333333	0
bin	0.0071611744666667	0
bin	0.007444173	1
scalar Flooding.host[7].pingTestApp[0] 	numOutOfOrderArrivals:last 	-nan
attr interpolationmode  none
attr title  "ping out-of-order arrivals, last"
scalar Flooding.host[7].pingTestApp[0] 	pingRxSeq:count 	0
attr interpolationmode  none
attr title  "ping rx seq, count"
scalar Flooding.host[7].pingTestApp[0] 	pingTxSeq:count 	0
attr interpolationmode  none
attr title  "ping tx seq, count"
scalar Flooding.host[7].pingTestApp[0] 	numLost:last 	-nan
attr interpolationmode  none
attr title  "pings lost, last"
statistic Flooding.host[7].pingTestApp[0] 	rtt:histogram
field count 0
field mean -nan
field stddev -nan
field sum 0
field sqrsum 0
field min -nan
field max -nan
attr interpolationmode  none
attr title  "ping round-trip time, histogram"
attr unit  s
bin	-INF	0
bin	-0.5	0
bin	-0.46666666666667	0
bin	-0.43333333333333	0
bin	-0.4	0
bin	-0.36666666666667	0
bin	-0.33333333333333	0
bin	-0.3	0
bin	-0.26666666666667	0
bin	-0.23333333333333	0
bin	-0.2	0
bin	-0.16666666666667	0
bin	-0.13333333333333	0
bin	-0.1	0
bin	-0.066666666666667	0
bin	-0.033333333333333	0
bin	0	0
bin	0.033333333333333	0
bin	0.066666666666667	0
bin	0.1	0
bin	0.13333333333333	0
bin	0.16666666666667	0
bin	0.2	0
bin	0.23333333333333	0
bin	0.26666666666667	0
bin	0.3	0
bin	0.33333333333333	0
bin	0.36666666666667	0
bin	0.4	0
bin	0.43333333333333	0
bin	0.46666666666667	0
bin	0.5	0
scalar Flooding.host[7].manetrouting 	OLSR_HNA_Messages_(Forwarded) 	0
scalar Flooding.host[7].manetrouting 	OLSR_TC_Messages_(Forwarded) 	755
scalar Flooding.host[7].manetrouting 	OLSR_Total_HELLO 	516
scalar Flooding.host[7].manetrouting 	OLSR_Total_HNA_(originated) 	0
scalar Flooding.host[7].manetrouting 	OLSR_Total_TC 	0
scalar Flooding.host[7].manetrouting 	OLSR_Total_Messages_Sent 	1271
scalar Flooding.host[8].networkLayer.arp 	failedARPResolution:count 	0
attr title  "ARP failed resolutions, count"
scalar Flooding.host[8].networkLayer.arp 	completedARPResolution:count 	14
attr title  "ARP completed resolutions, count"
scalar Flooding.host[8].networkLayer.arp 	initiatedARPResolution:count 	10
attr title  "ARP initiated resolutions, count"
scalar Flooding.host[8].networkLayer.arp 	sentReply:count 	1
attr title  "ARP replies sent, count"
scalar Flooding.host[8].networkLayer.arp 	sentReq:count 	10
attr title  "ARP request sent, count"
scalar Flooding.host[8].lo0.lo 	droppedPkBitError:count 	0
attr interpolationmode  none
attr source  dropPkBitError
attr title  "packets dropped/bit error, count"
scalar Flooding.host[8].lo0.lo 	droppedPkBitError:sum(packetBytes) 	0
attr interpolationmode  none
attr source  dropPkBitError
attr title  "packets dropped/bit error, sum(packetBytes)"
scalar Flooding.host[8].lo0.lo 	rcvdPkFromHL:count 	0
attr interpolationmode  none
attr source  packetReceivedFromUpper
attr title  "packets received from higher layer, count"
scalar Flooding.host[8].lo0.lo 	rcvdPkFromHL:sum(packetBytes) 	0
attr interpolationmode  none
attr source  packetReceivedFromUpper
attr title  "packets received from higher layer, sum(packetBytes)"
scalar Flooding.host[8].lo0.lo 	passedUpPk:count 	0
attr interpolationmode  none
attr source  packetSentToUpper
attr title  "packets passed to higher layer, count"
scalar Flooding.host[8].lo0.lo 	passedUpPk:sum(packetBytes) 	0
attr interpolationmode  none
attr source  packetSentToUpper
attr title  "packets passed to higher layer, sum(packetBytes)"
scalar Flooding.host[8].wlan[0].mgmt 	dataQueueLen:max 	0
attr interpolationmode  sample-hold
attr title  "data queue length, max"
scalar Flooding.host[8].wlan[0].mgmt 	dataQueueLen:timeavg 	0
attr interpolationmode  sample-hold
attr title  "data queue length, timeavg"
[...]
field count 0
field mean -nan
field stddev -nan
field sum 0
field sqrsum 0
field min -nan
field max -nan
attr interpolationmode  none
attr title  "ping round-trip time, histogram"
attr unit  s
bin	-INF	0
bin	-0.5	0
bin	-0.46666666666667	0
bin	-0.43333333333333	0
bin	-0.4	0
bin	-0.36666666666667	0
bin	-0.33333333333333	0
bin	-0.3	0
bin	-0.26666666666667	0
bin	-0.23333333333333	0
bin	-0.2	0
bin	-0.16666666666667	0
bin	-0.13333333333333	0
bin	-0.1	0
bin	-0.066666666666667	0
bin	-0.033333333333333	0
bin	0	0
bin	0.033333333333333	0
bin	0.066666666666667	0
bin	0.1	0
bin	0.13333333333333	0
bin	0.16666666666667	0
bin	0.2	0
bin	0.23333333333333	0
bin	0.26666666666667	0
bin	0.3	0
bin	0.33333333333333	0
bin	0.36666666666667	0
bin	0.4	0
bin	0.43333333333333	0
bin	0.46666666666667	0
bin	0.5	0
scalar Flooding.host[37].manetrouting 	OLSR_HNA_Messages_(Forwarded) 	0
scalar Flooding.host[37].manetrouting 	OLSR_TC_Messages_(Forwarded) 	738
scalar Flooding.host[37].manetrouting 	OLSR_Total_HELLO 	513
scalar Flooding.host[37].manetrouting 	OLSR_Total_HNA_(originated) 	0
scalar Flooding.host[37].manetrouting 	OLSR_Total_TC 	0
scalar Flooding.host[37].manetrouting 	OLSR_Total_Messages_Sent 	1251
scalar Flooding.host[38].networkLayer.arp 	failedARPResolution:count 	0
attr title  "ARP failed resolutions, count"
scalar Flooding.host[38].networkLayer.arp 	completedARPResolution:count 	0
attr title  "ARP completed resolutions, count"
scalar Flooding.host[38].networkLayer.arp 	initiatedARPResolution:count 	0
attr title  "ARP initiated resolutions, count"
scalar Flooding.host[38].networkLayer.arp 	sentReply:count 	0
attr title  "ARP replies sent, count"
scalar Flooding.host[38].networkLayer.arp 	sentReq:count 	0
attr title  "ARP request sent, count"
scalar Flooding.host[38].lo0.lo 	droppedPkBitError:count 	0
attr interpolationmode  none
attr source  dropPkBitError
attr title  "packets dropped/bit error, count"
scalar Flooding.host[38].lo0.lo 	droppedPkBitError:sum(packetBytes) 	0
attr interpolationmode  none
attr source  dropPkBitError
attr title  "packets dropped/bit error, sum(packetBytes)"
scalar Flooding.host[38].lo0.lo 	rcvdPkFromHL:count 	0
attr interpolationmode  none
attr source  packetReceivedFromUpper
attr title  "packets received from higher layer, count"
scalar Flooding.host[38].lo0.lo 	rcvdPkFromHL:sum(packetBytes) 	0
attr interpolationmode  none
attr source  packetReceivedFromUpper
attr title  "packets received from higher layer, sum(packetBytes)"
scalar Flooding.host[38].lo0.lo 	passedUpPk:count 	0
attr interpolationmode  none
attr source  packetSentToUpper
attr title  "packets passed to higher layer, count"
scalar Flooding.host[38].lo0.lo 	passedUpPk:sum(packetBytes) 	0
attr interpolationmode  none
attr source  packetSentToUpper
attr title  "packets passed to higher layer, sum(packetBytes)"
scalar Flooding.host[38].wlan[0].mgmt 	dataQueueLen:max 	0
attr interpolationmode  sample-hold
attr title  "data queue length, max"
scalar Flooding.host[38].wlan[0].mgmt 	dataQueueLen:timeavg 	0
attr interpolationmode  sample-hold
attr title  "data queue length, timeavg"
scalar Flooding.host[38].wlan[0].mgmt 	dropPkByQueue:count 	0
attr interpolationmode  none
attr source  dropPkByQueue
attr title  "packets dropped by queue, count"
scalar Flooding.host[38].wlan[0].mgmt 	dropPkByQueue:sum(packetBytes) 	0
attr interpolationmode  none
attr source  dropPkByQueue
attr title  "packets dropped by queue, sum(packetBytes)"
scalar Flooding.host[38].wlan[0].mac 	"number of received packets" 	0
scalar Flooding.host[38].wlan[0].mac 	"number of collisions" 	2671
scalar Flooding.host[38].wlan[0].mac 	"number of internal collisions" 	0
scalar Flooding.host[38].wlan[0].mac 	"number of retry for AC 0" 	0
scalar Flooding.host[38].wlan[0].mac 	"sent and received bits" 	1132864
scalar Flooding.host[38].wlan[0].mac 	"sent packet within AC 0" 	0
scalar Flooding.host[38].wlan[0].mac 	"sent in TXOP " 	0
scalar Flooding.host[38].wlan[0].mac 	"sentWithoutRetry AC 0" 	0
scalar Flooding.host[38].wlan[0].mac 	"numGivenUp AC 0" 	0
scalar Flooding.host[38].wlan[0].mac 	"numDropped AC 0" 	0
scalar Flooding.host[38].wlan[0].mac 	rcvdPkFromHL:count 	656
attr interpolationmode  none
attr source  packetReceivedFromUpper
attr title  "packets received from higher layer, count"
scalar Flooding.host[38].wlan[0].mac 	rcvdPkFromHL:sum(packetBytes) 	141608
attr interpolationmode  none
attr source  packetReceivedFromUpper
attr title  "packets received from higher layer, sum(packetBytes)"
scalar Flooding.host[38].wlan[0].mac 	passedUpPk:count 	27944
attr interpolationmode  none
attr source  packetSentToUpper
attr title  "packets passed to higher layer, count"
scalar Flooding.host[38].wlan[0].mac 	passedUpPk:sum(packetBytes) 	5599088
attr interpolationmode  none
attr source  packetSentToUpper
attr title  "packets passed to higher layer, sum(packetBytes)"
scalar Flooding.host[38].wlan[0].mac 	rcvdPkFromLL:count 	333855
attr interpolationmode  none
attr source  packetReceivedFromLower
attr title  "packets received from lower layer, count"
scalar Flooding.host[38].wlan[0].mac 	rcvdPkFromLL:sum(packetBytes) 	36998754
attr interpolationmode  none
attr source  packetReceivedFromLower
attr title  "packets received from lower layer, sum(packetBytes)"
scalar Flooding.host[38].wlan[0].mac 	sentDownPk:count 	656
attr interpolationmode  none
attr source  packetSentToLower
attr title  "packets sent to lower layer, count"
scalar Flooding.host[38].wlan[0].mac 	sentDownPk:sum(packetBytes) 	141608
attr interpolationmode  none
attr source  packetSentToLower
attr title  "packets sent to lower layer, sum(packetBytes)"
scalar Flooding.host[38].wlan[0].radio 	lossRate:min 	0
attr interpolationmode  backward-sample-hold
attr title  "packet loss rate, min"
scalar Flooding.host[38].wlan[0].radio 	lossRate:max 	0.16
attr interpolationmode  backward-sample-hold
attr title  "packet loss rate, max"
scalar Flooding.host[38].wlan[0].radio 	lossRate:timeavg 	0.0072485897064505
attr interpolationmode  backward-sample-hold
attr title  "packet loss rate, timeavg"
statistic Flooding.host[38].wlan[0].radio 	channelNo:histogram
field count 1
field mean 0
field stddev -nan
field sum 0
field sqrsum 0
field min 0
field max 0
attr interpolationmode  sample-hold
attr title  "channel no, histogram"
bin	-INF	0
bin	-0.5	0
bin	-0.46666666666667	0
bin	-0.43333333333333	0
bin	-0.4	0
bin	-0.36666666666667	0
bin	-0.33333333333333	0
bin	-0.3	0
bin	-0.26666666666667	0
bin	-0.23333333333333	0
bin	-0.2	0
bin	-0.16666666666667	0
bin	-0.13333333333333	0
bin	-0.1	0
bin	-0.066666666666667	0
bin	-0.033333333333333	0
bin	0	1
bin	0.033333333333333	0
bin	0.066666666666667	0
bin	0.1	0
bin	0.13333333333333	0
bin	0.16666666666667	0
bin	0.2	0
bin	0.23333333333333	0
bin	0.26666666666667	0
bin	0.3	0
bin	0.33333333333333	0
bin	0.36666666666667	0
bin	0.4	0
bin	0.43333333333333	0
bin	0.46666666666667	0
bin	0.5	0
scalar Flooding.host[38].wlan[0].radio 	bitrate:min 	11000000
attr interpolationmode  sample-hold
attr title  "tx bitrate, min"
attr unit  bps
scalar Flooding.host[38].wlan[0].radio 	bitrate:max 	11000000
attr interpolationmode  sample-hold
attr title  "tx bitrate, max"
attr unit  bps
scalar Flooding.host[38].wlan[0].radio 	bitrate:timeavg 	11000000
attr interpolationmode  sample-hold
attr title  "tx bitrate, timeavg"
attr unit  bps
scalar Flooding.host[38].wlan[0].radio 	radioState:count 	666662
attr interpolationmode  sample-hold
attr title  "radio state (enum), count"
scalar Flooding.host[38].pingApp[0] 	numOutOfOrderArrivals:last 	-nan
attr interpolationmode  none
attr title  "ping out-of-order arrivals, last"
scalar Flooding.host[38].pingApp[0] 	pingRxSeq:count 	0
attr interpolationmode  none
attr title  "ping rx seq, count"
scalar Flooding.host[38].pingApp[0] 	pingTxSeq:count 	0
attr interpolationmode  none
attr title  "ping tx seq, count"
scalar Flooding.host[38].pingApp[0] 	numLost:last 	-nan
attr interpolationmode  none
attr title  "pings lost, last"
statistic Flooding.host[38].pingApp[0] 	rtt:histogram
field count 0
field mean -nan
field stddev -nan
field sum 0
field sqrsum 0
field min -nan
field max -nan
attr interpolationmode  none
attr title  "ping round-trip time, histogram"
attr unit  s
bin	-INF	0
bin	-0.5	0
bin	-0.46666666666667	0
bin	-0.43333333333333	0
bin	-0.4	0
bin	-0.36666666666667	0
bin	-0.33333333333333	0
bin	-0.3	0
bin	-0.26666666666667	0
bin	-0.23333333333333	0
bin	-0.2	0
bin	-0.16666666666667	0
bin	-0.13333333333333	0
bin	-0.1	0
bin	-0.066666666666667	0
bin	-0.033333333333333	0
bin	0	0
bin	0.033333333333333	0
bin	0.066666666666667	0
bin	0.1	0
bin	0.13333333333333	0
bin	0.16666666666667	0
bin	0.2	0
bin	0.23333333333333	0
bin	0.26666666666667	0
bin	0.3	0
bin	0.33333333333333	0
bin	0.36666666666667	0
bin	0.4	0
bin	0.43333333333333	0
bin	0.46666666666667	0
bin	0.5	0
scalar Flooding.host[38].pingTestApp[0] 	numOutOfOrderArrivals:last 	-nan
attr interpolationmode  none
attr title  "ping out-of-order arrivals, last"
scalar Flooding.host[38].pingTestApp[0] 	pingRxSeq:count 	0
attr interpolationmode  none
attr title  "ping rx seq, count"
scalar Flooding.host[38].pingTestApp[0] 	pingTxSeq:count 	0
attr interpolationmode  none
attr title  "ping tx seq, count"
scalar Flooding.host[38].pingTestApp[0] 	numLost:last 	-nan
attr interpolationmode  none
attr title  "pings lost, last"
statistic Flooding.host[38].pingTestApp[0] 	rtt:histogram
field count 0
field mean -nan
field stddev -nan
field sum 0
field sqrsum 0
field min -nan
field max -nan
attr interpolationmode  none
attr title  "ping round-trip time, histogram"
attr unit  s
bin	-INF	0
bin	-0.5	0
bin	-0.46666666666667	0
bin	-0.43333333333333	0
bin	-0.4	0
bin	-0.36666666666667	0
bin	-0.33333333333333	0
bin	-0.3	0
bin	-0.26666666666667	0
bin	-0.23333333333333	0
bin	-0.2	0
bin	-0.16666666666667	0
bin	-0.13333333333333	0
bin	-0.1	0
bin	-0.066666666666667	0
bin	-0.033333333333333	0
bin	0	0
bin	0.033333333333333	0
bin	0.066666666666667	0
bin	0.1	0
bin	0.13333333333333	0
bin	0.16666666666667	0
bin	0.2	0
bin	0.23333333333333	0
bin	0.26666666666667	0
bin	0.3	0
bin	0.33333333333333	0
bin	0.36666666666667	0
bin	0.4	0
bin	0.43333333333333	0
bin	0.46666666666667	0
bin	0.5	0
scalar Flooding.host[38].manetrouting 	OLSR_HNA_Messages_(Forwarded) 	0
scalar Flooding.host[38].manetrouting 	OLSR_TC_Messages_(Forwarded) 	747
scalar Flooding.host[38].manetrouting 	OLSR_Total_HELLO 	512
scalar Flooding.host[38].manetrouting 	OLSR_Total_HNA_(originated) 	0
scalar Flooding.host[38].manetrouting 	OLSR_Total_TC 	1
scalar Flooding.host[38].manetrouting 	OLSR_Total_Messages_Sent 	1260
scalar Flooding.host[39].networkLayer.arp 	failedARPResolution:count 	0
attr title  "ARP failed resolutions, count"
scalar Flooding.host[39].networkLayer.arp 	completedARPResolution:count 	0
attr title  "ARP completed resolutions, count"
scalar Flooding.host[39].networkLayer.arp 	initiatedARPResolution:count 	0
attr title  "ARP initiated resolutions, count"
scalar Flooding.host[39].networkLayer.arp 	sentReply:count 	0
attr title  "ARP replies sent, count"
scalar Flooding.host[39].networkLayer.arp 	sentReq:count 	0
attr title  "ARP request sent, count"
scalar Flooding.host[39].lo0.lo 	droppedPkBitError:count 	0
attr interpolationmode  none
attr source  dropPkBitError
attr title  "packets dropped/bit error, count"
scalar Flooding.host[39].lo0.lo 	droppedPkBitError:sum(packetBytes) 	0
attr interpolationmode  none
attr source  dropPkBitError
attr title  "packets dropped/bit error, sum(packetBytes)"
scalar Flooding.host[39].lo0.lo 	rcvdPkFromHL:count 	0
attr interpolationmode  none
attr source  packetReceivedFromUpper
attr title  "packets received from higher layer, count"
scalar Flooding.host[39].lo0.lo 	rcvdPkFromHL:sum(packetBytes) 	0
attr interpolationmode  none
attr source  packetReceivedFromUpper
attr title  "packets received from higher layer, sum(packetBytes)"
scalar Flooding.host[39].lo0.lo 	passedUpPk:count 	0
attr interpolationmode  none
attr source  packetSentToUpper
attr title  "packets passed to higher layer, count"
scalar Flooding.host[39].lo0.lo 	passedUpPk:sum(packetBytes) 	0
attr interpolationmode  none
attr source  packetSentToUpper
attr title  "packets passed to higher layer, sum(packetBytes)"
scalar Flooding.host[39].wlan[0].mgmt 	dataQueueLen:max 	0
attr interpolationmode  sample-hold
attr title  "data queue length, max"
scalar Flooding.host[39].wlan[0].mgmt 	dataQueueLen:timeavg 	0
attr interpolationmode  sample-hold
attr title  "data queue length, timeavg"
scalar Flooding.host[39].wlan[0].mgmt 	dropPkByQueue:count 	0
attr interpolationmode  none
attr source  dropPkByQueue
attr title  "packets dropped by queue, count"
scalar Flooding.host[39].wlan[0].mgmt 	dropPkByQueue:sum(packetBytes) 	0
attr interpolationmode  none
attr source  dropPkByQueue
attr title  "packets dropped by queue, sum(packetBytes)"
scalar Flooding.host[39].wlan[0].mac 	"number of received packets" 	0
scalar Flooding.host[39].wlan[0].mac 	"number of collisions" 	4414
scalar Flooding.host[39].wlan[0].mac 	"number of internal collisions" 	0
scalar Flooding.host[39].wlan[0].mac 	"number of retry for AC 0" 	0
scalar Flooding.host[39].wlan[0].mac 	"sent and received bits" 	1126416
scalar Flooding.host[39].wlan[0].mac 	"sent packet within AC 0" 	0
scalar Flooding.host[39].wlan[0].mac 	"sent in TXOP " 	0
scalar Flooding.host[39].wlan[0].mac 	"sentWithoutRetry AC 0" 	0
scalar Flooding.host[39].wlan[0].mac 	"numGivenUp AC 0" 	0
scalar Flooding.host[39].wlan[0].mac 	"numDropped AC 0" 	0
scalar Flooding.host[39].wlan[0].mac 	rcvdPkFromHL:count 	639
attr interpolationmode  none
attr source  packetReceivedFromUpper
attr title  "packets received from higher layer, count"
scalar Flooding.host[39].wlan[0].mac 	rcvdPkFromHL:sum(packetBytes) 	140802
attr interpolationmode  none
attr source  packetReceivedFromUpper
attr title  "packets received from higher layer, sum(packetBytes)"
scalar Flooding.host[39].wlan[0].mac 	passedUpPk:count 	26148
attr interpolationmode  none
attr source  packetSentToUpper
attr title  "packets passed to higher layer, count"
scalar Flooding.host[39].wlan[0].mac 	passedUpPk:sum(packetBytes) 	5325816
attr interpolationmode  none
attr source  packetSentToUpper
attr title  "packets passed to higher layer, sum(packetBytes)"
scalar Flooding.host[39].wlan[0].mac 	rcvdPkFromLL:count 	332232
attr interpolationmode  none
attr source  packetReceivedFromLower
attr title  "packets received from lower layer, count"
scalar Flooding.host[39].wlan[0].mac 	rcvdPkFromLL:sum(packetBytes) 	36759844
attr interpolationmode  none
attr source  packetReceivedFromLower
attr title  "packets received from lower layer, sum(packetBytes)"
scalar Flooding.host[39].wlan[0].mac 	sentDownPk:count 	639
attr interpolationmode  none
attr source  packetSentToLower
attr title  "packets sent to lower layer, count"
scalar Flooding.host[39].wlan[0].mac 	sentDownPk:sum(packetBytes) 	140802
attr interpolationmode  none
attr source  packetSentToLower
attr title  "packets sent to lower layer, sum(packetBytes)"
scalar Flooding.host[39].wlan[0].radio 	lossRate:min 	0
attr interpolationmode  backward-sample-hold
attr title  "packet loss rate, min"
scalar Flooding.host[39].wlan[0].radio 	lossRate:max 	0.22
attr interpolationmode  backward-sample-hold
attr title  "packet loss rate, max"
scalar Flooding.host[39].wlan[0].radio 	lossRate:timeavg 	0.011832757191846
attr interpolationmode  backward-sample-hold
attr title  "packet loss rate, timeavg"
statistic Flooding.host[39].wlan[0].radio 	channelNo:histogram
field count 1
field mean 0
field stddev -nan
field sum 0
field sqrsum 0
field min 0
field max 0
attr interpolationmode  sample-hold
attr title  "channel no, histogram"
bin	-INF	0
bin	-0.5	0
bin	-0.46666666666667	0
bin	-0.43333333333333	0
bin	-0.4	0
bin	-0.36666666666667	0
bin	-0.33333333333333	0
bin	-0.3	0
bin	-0.26666666666667	0
bin	-0.23333333333333	0
bin	-0.2	0
bin	-0.16666666666667	0
bin	-0.13333333333333	0
bin	-0.1	0
bin	-0.066666666666667	0
bin	-0.033333333333333	0
bin	0	1
bin	0.033333333333333	0
bin	0.066666666666667	0
bin	0.1	0
bin	0.13333333333333	0
bin	0.16666666666667	0
bin	0.2	0
bin	0.23333333333333	0
bin	0.26666666666667	0
bin	0.3	0
bin	0.33333333333333	0
bin	0.36666666666667	0
bin	0.4	0
bin	0.43333333333333	0
bin	0.46666666666667	0
bin	0.5	0
scalar Flooding.host[39].wlan[0].radio 	bitrate:min 	11000000
attr interpolationmode  sample-hold
attr title  "tx bitrate, min"
attr unit  bps
scalar Flooding.host[39].wlan[0].radio 	bitrate:max 	11000000
attr interpolationmode  sample-hold
attr title  "tx bitrate, max"
attr unit  bps
scalar Flooding.host[39].wlan[0].radio 	bitrate:timeavg 	11000000
attr interpolationmode  sample-hold
attr title  "tx bitrate, timeavg"
attr unit  bps
scalar Flooding.host[39].wlan[0].radio 	radioState:count 	663450
attr interpolationmode  sample-hold
attr title  "radio state (enum), count"
scalar Flooding.host[39].pingApp[0] 	numOutOfOrderArrivals:last 	-nan
attr interpolationmode  none
attr title  "ping out-of-order arrivals, last"
scalar Flooding.host[39].pingApp[0] 	pingRxSeq:count 	0
attr interpolationmode  none
attr title  "ping rx seq, count"
scalar Flooding.host[39].pingApp[0] 	pingTxSeq:count 	0
attr interpolationmode  none
attr title  "ping tx seq, count"
scalar Flooding.host[39].pingApp[0] 	numLost:last 	-nan
attr interpolationmode  none
attr title  "pings lost, last"
statistic Flooding.host[39].pingApp[0] 	rtt:histogram
field count 0
field mean -nan
field stddev -nan
field sum 0
field sqrsum 0
field min -nan
field max -nan
attr interpolationmode  none
attr title  "ping round-trip time, histogram"
attr unit  s
bin	-INF	0
bin	-0.5	0
bin	-0.46666666666667	0
bin	-0.43333333333333	0
bin	-0.4	0
bin	-0.36666666666667	0
bin	-0.33333333333333	0
bin	-0.3	0
bin	-0.26666666666667	0
bin	-0.23333333333333	0
bin	-0.2	0
bin	-0.16666666666667	0
bin	-0.13333333333333	0
bin	-0.1	0
bin	-0.066666666666667	0
bin	-0.033333333333333	0
bin	0	0
bin	0.033333333333333	0
bin	0.066666666666667	0
bin	0.1	0
bin	0.13333333333333	0
bin	0.16666666666667	0
bin	0.2	0
bin	0.23333333333333	0
bin	0.26666666666667	0
bin	0.3	0
bin	0.33333333333333	0
bin	0.36666666666667	0
bin	0.4	0
bin	0.43333333333333	0
bin	0.46666666666667	0
bin	0.5	0
scalar Flooding.host[39].pingTestApp[0] 	numOutOfOrderArrivals:last 	-nan
attr interpolationmode  none
attr title  "ping out-of-order arrivals, last"
scalar Flooding.host[39].pingTestApp[0] 	pingRxSeq:count 	0
attr interpolationmode  none
attr title  "ping rx seq, count"
scalar Flooding.host[39].pingTestApp[0] 	pingTxSeq:count 	0
attr interpolationmode  none
attr title  "ping tx seq, count"
scalar Flooding.host[39].pingTestApp[0] 	numLost:last 	-nan
attr interpolationmode  none
attr title  "pings lost, last"
statistic Flooding.host[39].pingTestApp[0] 	rtt:histogram
field count 0
field mean -nan
field stddev -nan
field sum 0
field sqrsum 0
field min -nan
field max -nan
attr interpolationmode  none
attr title  "ping round-trip time, histogram"
attr unit  s
bin	-INF	0
bin	-0.5	0
bin	-0.46666666666667	0
bin	-0.43333333333333	0
bin	-0.4	0
bin	-0.36666666666667	0
bin	-0.33333333333333	0
bin	-0.3	0
bin	-0.26666666666667	0
bin	-0.23333333333333	0
bin	-0.2	0
bin	-0.16666666666667	0
bin	-0.13333333333333	0
bin	-0.1	0
bin	-0.066666666666667	0
bin	-0.033333333333333	0
bin	0	0
bin	0.033333333333333	0
bin	0.066666666666667	0
bin	0.1	0
bin	0.13333333333333	0
bin	0.16666666666667	0
bin	0.2	0
bin	0.23333333333333	0
bin	0.26666666666667	0
bin	0.3	0
bin	0.33333333333333	0
bin	0.36666666666667	0
bin	0.4	0
bin	0.43333333333333	0
bin	0.46666666666667	0
bin	0.5	0
scalar Flooding.host[39].manetrouting 	OLSR_HNA_Messages_(Forwarded) 	0
scalar Flooding.host[39].manetrouting 	OLSR_TC_Messages_(Forwarded) 	738
scalar Flooding.host[39].manetrouting 	OLSR_Total_HELLO 	515
scalar Flooding.host[39].manetrouting 	OLSR_Total_HNA_(originated) 	0
scalar Flooding.host[39].manetrouting 	OLSR_Total_TC 	0
scalar Flooding.host[39].manetrouting 	OLSR_Total_Messages_Sent 	1253
