version 2
run switchClusterMobility-0-20190326-20:32:17-9881
attr configname switchClusterMobility
attr datetime 20190326-20:32:17
attr experiment switchClusterMobility
attr inifile Flooding_with_Mobility.ini
attr iterationvars ""
attr iterationvars2 $repetition=0
attr measurement ""
attr network p2psipmanet.simulations.Silas.Flooding
attr processid 9881
attr repetition 0
attr replication #0
attr resultdir results
attr runnumber 0
attr seedset 5

scalar Flooding.gw[0].networkLayer.arp 	failedARPResolution:count 	0
attr title  "ARP failed resolutions, count"
scalar Flooding.gw[0].networkLayer.arp 	completedARPResolution:count 	185
attr title  "ARP completed resolutions, count"
scalar Flooding.gw[0].networkLayer.arp 	initiatedARPResolution:count 	160
attr title  "ARP initiated resolutions, count"
scalar Flooding.gw[0].networkLayer.arp 	sentReply:count 	3
attr title  "ARP replies sent, count"
scalar Flooding.gw[0].networkLayer.arp 	sentReq:count 	160
attr title  "ARP request sent, count"
scalar Flooding.gw[0].lo0.lo 	droppedPkBitError:count 	0
attr interpolationmode  none
attr source  dropPkBitError
attr title  "packets dropped/bit error, count"
scalar Flooding.gw[0].lo0.lo 	droppedPkBitError:sum(packetBytes) 	0
attr interpolationmode  none
attr source  dropPkBitError
attr title  "packets dropped/bit error, sum(packetBytes)"
scalar Flooding.gw[0].lo0.lo 	rcvdPkFromHL:count 	0
attr interpolationmode  none
attr source  packetReceivedFromUpper
attr title  "packets received from higher layer, count"
scalar Flooding.gw[0].lo0.lo 	rcvdPkFromHL:sum(packetBytes) 	0
attr interpolationmode  none
attr source  packetReceivedFromUpper
attr title  "packets received from higher layer, sum(packetBytes)"
scalar Flooding.gw[0].lo0.lo 	passedUpPk:count 	0
attr interpolationmode  none
attr source  packetSentToUpper
attr title  "packets passed to higher layer, count"
scalar Flooding.gw[0].lo0.lo 	passedUpPk:sum(packetBytes) 	0
attr interpolationmode  none
attr source  packetSentToUpper
attr title  "packets passed to higher layer, sum(packetBytes)"
scalar Flooding.gw[0].wlan[0].mgmt 	dataQueueLen:max 	3
attr interpolationmode  sample-hold
attr title  "data queue length, max"
scalar Flooding.gw[0].wlan[0].mgmt 	dataQueueLen:timeavg 	8.6146565133844e-05
attr interpolationmode  sample-hold
attr title  "data queue length, timeavg"
scalar Flooding.gw[0].wlan[0].mgmt 	dropPkByQueue:count 	0
attr interpolationmode  none
attr source  dropPkByQueue
attr title  "packets dropped by queue, count"
scalar Flooding.gw[0].wlan[0].mgmt 	dropPkByQueue:sum(packetBytes) 	0
attr interpolationmode  none
attr source  dropPkByQueue
attr title  "packets dropped by queue, sum(packetBytes)"
scalar Flooding.gw[0].wlan[0].mac 	"number of received packets" 	213119
scalar Flooding.gw[0].wlan[0].mac 	"number of collisions" 	15760
scalar Flooding.gw[0].wlan[0].mac 	"number of internal collisions" 	0
scalar Flooding.gw[0].wlan[0].mac 	"number of retry for AC 0" 	7366
scalar Flooding.gw[0].wlan[0].mac 	"sent and received bits" 	208337984
scalar Flooding.gw[0].wlan[0].mac 	"sent packet within AC 0" 	199350
scalar Flooding.gw[0].wlan[0].mac 	"sent in TXOP " 	0
scalar Flooding.gw[0].wlan[0].mac 	"sentWithoutRetry AC 0" 	196072
scalar Flooding.gw[0].wlan[0].mac 	"numGivenUp AC 0" 	161
scalar Flooding.gw[0].wlan[0].mac 	"numDropped AC 0" 	0
scalar Flooding.gw[0].wlan[0].mac 	rcvdPkFromHL:count 	207449
attr interpolationmode  none
attr source  packetReceivedFromUpper
attr title  "packets received from higher layer, count"
scalar Flooding.gw[0].wlan[0].mac 	rcvdPkFromHL:sum(packetBytes) 	26062534
attr interpolationmode  none
attr source  packetReceivedFromUpper
attr title  "packets received from higher layer, sum(packetBytes)"
scalar Flooding.gw[0].wlan[0].mac 	passedUpPk:count 	238878
attr interpolationmode  none
attr source  packetSentToUpper
attr title  "packets passed to higher layer, count"
scalar Flooding.gw[0].wlan[0].mac 	passedUpPk:sum(packetBytes) 	29707300
attr interpolationmode  none
attr source  packetSentToUpper
attr title  "packets passed to higher layer, sum(packetBytes)"
scalar Flooding.gw[0].wlan[0].mac 	rcvdPkFromLL:count 	920078
attr interpolationmode  none
attr source  packetReceivedFromLower
attr title  "packets received from lower layer, count"
scalar Flooding.gw[0].wlan[0].mac 	rcvdPkFromLL:sum(packetBytes) 	66801088
attr interpolationmode  none
attr source  packetReceivedFromLower
attr title  "packets received from lower layer, sum(packetBytes)"
scalar Flooding.gw[0].wlan[0].mac 	sentDownPk:count 	427934
attr interpolationmode  none
attr source  packetSentToLower
attr title  "packets sent to lower layer, count"
scalar Flooding.gw[0].wlan[0].mac 	sentDownPk:sum(packetBytes) 	29974316
attr interpolationmode  none
attr source  packetSentToLower
attr title  "packets sent to lower layer, sum(packetBytes)"
scalar Flooding.gw[0].wlan[0].radio 	lossRate:min 	0
attr interpolationmode  backward-sample-hold
attr title  "packet loss rate, min"
scalar Flooding.gw[0].wlan[0].radio 	lossRate:max 	0.28
attr interpolationmode  backward-sample-hold
attr title  "packet loss rate, max"
scalar Flooding.gw[0].wlan[0].radio 	lossRate:timeavg 	0.016877729870868
attr interpolationmode  backward-sample-hold
attr title  "packet loss rate, timeavg"
statistic Flooding.gw[0].wlan[0].radio 	channelNo:histogram
field count 1
field mean 0
field stddev -nan
field sum 0
field sqrsum 0
field min 0
field max 0
attr interpolationmode  sample-hold
attr title  "channel no, histogram"
bin	-INF	0
bin	-0.5	0
bin	-0.46666666666667	0
bin	-0.43333333333333	0
bin	-0.4	0
bin	-0.36666666666667	0
bin	-0.33333333333333	0
bin	-0.3	0
bin	-0.26666666666667	0
bin	-0.23333333333333	0
bin	-0.2	0
bin	-0.16666666666667	0
bin	-0.13333333333333	0
bin	-0.1	0
bin	-0.066666666666667	0
bin	-0.033333333333333	0
bin	0	1
bin	0.033333333333333	0
bin	0.066666666666667	0
bin	0.1	0
bin	0.13333333333333	0
bin	0.16666666666667	0
bin	0.2	0
bin	0.23333333333333	0
bin	0.26666666666667	0
bin	0.3	0
bin	0.33333333333333	0
bin	0.36666666666667	0
bin	0.4	0
bin	0.43333333333333	0
bin	0.46666666666667	0
bin	0.5	0
scalar Flooding.gw[0].wlan[0].radio 	bitrate:min 	11000000
attr interpolationmode  sample-hold
attr title  "tx bitrate, min"
attr unit  bps
scalar Flooding.gw[0].wlan[0].radio 	bitrate:max 	11000000
attr interpolationmode  sample-hold
attr title  "tx bitrate, max"
attr unit  bps
scalar Flooding.gw[0].wlan[0].radio 	bitrate:timeavg 	11000000
attr interpolationmode  sample-hold
attr title  "tx bitrate, timeavg"
attr unit  bps
scalar Flooding.gw[0].wlan[0].radio 	radioState:count 	2695015
attr interpolationmode  sample-hold
attr title  "radio state (enum), count"
scalar Flooding.gw[0].wlan[1].mgmt 	dataQueueLen:max 	10
attr interpolationmode  sample-hold
attr title  "data queue length, max"
scalar Flooding.gw[0].wlan[1].mgmt 	dataQueueLen:timeavg 	0.18776429141668
attr interpolationmode  sample-hold
attr title  "data queue length, timeavg"
scalar Flooding.gw[0].wlan[1].mgmt 	dropPkByQueue:count 	9
attr interpolationmode  none
attr source  dropPkByQueue
attr title  "packets dropped by queue, count"
scalar Flooding.gw[0].wlan[1].mgmt 	dropPkByQueue:sum(packetBytes) 	1134
attr interpolationmode  none
attr source  dropPkByQueue
attr title  "packets dropped by queue, sum(packetBytes)"
scalar Flooding.gw[0].wlan[1].mac 	"number of received packets" 	0
scalar Flooding.gw[0].wlan[1].mac 	"number of collisions" 	196320
scalar Flooding.gw[0].wlan[1].mac 	"number of internal collisions" 	0
scalar Flooding.gw[0].wlan[1].mac 	"number of retry for AC 0" 	0
scalar Flooding.gw[0].wlan[1].mac 	"sent and received bits" 	546940800
scalar Flooding.gw[0].wlan[1].mac 	"sent packet within AC 0" 	0
scalar Flooding.gw[0].wlan[1].mac 	"sent in TXOP " 	0
scalar Flooding.gw[0].wlan[1].mac 	"sentWithoutRetry AC 0" 	0
scalar Flooding.gw[0].wlan[1].mac 	"numGivenUp AC 0" 	0
scalar Flooding.gw[0].wlan[1].mac 	"numDropped AC 0" 	0
scalar Flooding.gw[0].wlan[1].mac 	rcvdPkFromHL:count 	542600
attr interpolationmode  none
attr source  packetReceivedFromUpper
attr title  "packets received from higher layer, count"
scalar Flooding.gw[0].wlan[1].mac 	rcvdPkFromHL:sum(packetBytes) 	68367600
attr interpolationmode  none
attr source  packetReceivedFromUpper
attr title  "packets received from higher layer, sum(packetBytes)"
scalar Flooding.gw[0].wlan[1].mac 	passedUpPk:count 	1069153
attr interpolationmode  none
attr source  packetSentToUpper
attr title  "packets passed to higher layer, count"
scalar Flooding.gw[0].wlan[1].mac 	passedUpPk:sum(packetBytes) 	134713278
attr interpolationmode  none
attr source  packetSentToUpper
attr title  "packets passed to higher layer, sum(packetBytes)"
scalar Flooding.gw[0].wlan[1].mac 	rcvdPkFromLL:count 	1265473
attr interpolationmode  none
attr source  packetReceivedFromLower
attr title  "packets received from lower layer, count"
scalar Flooding.gw[0].wlan[1].mac 	rcvdPkFromLL:sum(packetBytes) 	159449598
attr interpolationmode  none
attr source  packetReceivedFromLower
attr title  "packets received from lower layer, sum(packetBytes)"
scalar Flooding.gw[0].wlan[1].mac 	sentDownPk:count 	542600
attr interpolationmode  none
attr source  packetSentToLower
attr title  "packets sent to lower layer, count"
scalar Flooding.gw[0].wlan[1].mac 	sentDownPk:sum(packetBytes) 	68367600
attr interpolationmode  none
attr source  packetSentToLower
attr title  "packets sent to lower layer, sum(packetBytes)"
scalar Flooding.gw[0].wlan[1].radio 	lossRate:min 	0
attr interpolationmode  backward-sample-hold
attr title  "packet loss rate, min"
scalar Flooding.gw[0].wlan[1].radio 	lossRate:max 	0.48
attr interpolationmode  backward-sample-hold
attr title  "packet loss rate, max"
scalar Flooding.gw[0].wlan[1].radio 	lossRate:timeavg 	0.15364234648498
attr interpolationmode  backward-sample-hold
attr title  "packet loss rate, timeavg"
statistic Flooding.gw[0].wlan[1].radio 	channelNo:histogram
field count 1
field mean 1
field stddev -nan
field sum 1
field sqrsum 1
field min 1
field max 1
attr interpolationmode  sample-hold
attr title  "channel no, histogram"
bin	-INF	0
bin	0	0
bin	1	1
bin	2	0
scalar Flooding.gw[0].wlan[1].radio 	bitrate:min 	11000000
attr interpolationmode  sample-hold
attr title  "tx bitrate, min"
attr unit  bps
scalar Flooding.gw[0].wlan[1].radio 	bitrate:max 	11000000
attr interpolationmode  sample-hold
attr title  "tx bitrate, max"
attr unit  bps
scalar Flooding.gw[0].wlan[1].radio 	bitrate:timeavg 	11000000
attr interpolationmode  sample-hold
attr title  "tx bitrate, timeavg"
attr unit  bps
scalar Flooding.gw[0].wlan[1].radio 	radioState:count 	3816763
attr interpolationmode  sample-hold
attr title  "radio state (enum), count"
scalar Flooding.gw[0].pingApp[0] 	numOutOfOrderArrivals:last 	-nan
attr interpolationmode  none
attr title  "ping out-of-order arrivals, last"
scalar Flooding.gw[0].pingApp[0] 	pingRxSeq:count 	0
attr interpolationmode  none
attr title  "ping rx seq, count"
scalar Flooding.gw[0].pingApp[0] 	pingTxSeq:count 	0
attr interpolationmode  none
attr title  "ping tx seq, count"
scalar Flooding.gw[0].pingApp[0] 	numLost:last 	-nan
attr interpolationmode  none
attr title  "pings lost, last"
statistic Flooding.gw[0].pingApp[0] 	rtt:histogram
field count 0
field mean -nan
field stddev -nan
field sum 0
field sqrsum 0
field min -nan
field max -nan
attr interpolationmode  none
attr title  "ping round-trip time, histogram"
attr unit  s
bin	-INF	0
bin	-0.5	0
bin	-0.46666666666667	0
bin	-0.43333333333333	0
bin	-0.4	0
bin	-0.36666666666667	0
bin	-0.33333333333333	0
bin	-0.3	0
bin	-0.26666666666667	0
bin	-0.23333333333333	0
bin	-0.2	0
bin	-0.16666666666667	0
bin	-0.13333333333333	0
bin	-0.1	0
bin	-0.066666666666667	0
bin	-0.033333333333333	0
bin	0	0
bin	0.033333333333333	0
bin	0.066666666666667	0
bin	0.1	0
bin	0.13333333333333	0
bin	0.16666666666667	0
bin	0.2	0
bin	0.23333333333333	0
bin	0.26666666666667	0
bin	0.3	0
bin	0.33333333333333	0
bin	0.36666666666667	0
bin	0.4	0
bin	0.43333333333333	0
bin	0.46666666666667	0
bin	0.5	0
scalar Flooding.gw[0].pingTestApp[0] 	numOutOfOrderArrivals:last 	-nan
attr interpolationmode  none
attr title  "ping out-of-order arrivals, last"
scalar Flooding.gw[0].pingTestApp[0] 	pingRxSeq:count 	0
attr interpolationmode  none
attr title  "ping rx seq, count"
scalar Flooding.gw[0].pingTestApp[0] 	pingTxSeq:count 	0
attr interpolationmode  none
attr title  "ping tx seq, count"
scalar Flooding.gw[0].pingTestApp[0] 	numLost:last 	-nan
attr interpolationmode  none
attr title  "pings lost, last"
statistic Flooding.gw[0].pingTestApp[0] 	rtt:histogram
field count 0
field mean -nan
field stddev -nan
field sum 0
field sqrsum 0
field min -nan
field max -nan
attr interpolationmode  none
attr title  "ping round-trip time, histogram"
attr unit  s
bin	-INF	0
bin	-0.5	0
bin	-0.46666666666667	0
bin	-0.43333333333333	0
bin	-0.4	0
bin	-0.36666666666667	0
bin	-0.33333333333333	0
bin	-0.3	0
bin	-0.26666666666667	0
bin	-0.23333333333333	0
bin	-0.2	0
bin	-0.16666666666667	0
bin	-0.13333333333333	0
bin	-0.1	0
bin	-0.066666666666667	0
bin	-0.033333333333333	0
bin	0	0
bin	0.033333333333333	0
bin	0.066666666666667	0
bin	0.1	0
bin	0.13333333333333	0
bin	0.16666666666667	0
bin	0.2	0
bin	0.23333333333333	0
bin	0.26666666666667	0
bin	0.3	0
bin	0.33333333333333	0
bin	0.36666666666667	0
bin	0.4	0
bin	0.43333333333333	0
bin	0.46666666666667	0
bin	0.5	0
scalar Flooding.gw[0].manetrouting 	OLSR_HNA_Messages_(Forwarded) 	0
scalar Flooding.gw[0].manetrouting 	OLSR_TC_Messages_(Forwarded) 	2876
scalar Flooding.gw[0].manetrouting 	OLSR_Total_HELLO 	2064
scalar Flooding.gw[0].manetrouting 	OLSR_Total_HNA_(originated) 	758
scalar Flooding.gw[0].manetrouting 	OLSR_Total_TC 	757
scalar Flooding.gw[0].manetrouting 	OLSR_Total_Messages_Sent 	6455
scalar Flooding.gw[1].networkLayer.arp 	failedARPResolution:count 	0
attr title  "ARP failed resolutions, count"
scalar Flooding.gw[1].networkLayer.arp 	completedARPResolution:count 	255
attr title  "ARP completed resolutions, count"
scalar Flooding.gw[1].networkLayer.arp 	initiatedARPResolution:count 	59
attr title  "ARP initiated resolutions, count"
scalar Flooding.gw[1].networkLayer.arp 	sentReply:count 	20
attr title  "ARP replies sent, count"
scalar Flooding.gw[1].networkLayer.arp 	sentReq:count 	63
attr title  "ARP request sent, count"
scalar Flooding.gw[1].lo0.lo 	droppedPkBitError:count 	0
attr interpolationmode  none
attr source  dropPkBitError
attr title  "packets dropped/bit error, count"
scalar Flooding.gw[1].lo0.lo 	droppedPkBitError:sum(packetBytes) 	0
attr interpolationmode  none
attr source  dropPkBitError
attr title  "packets dropped/bit error, sum(packetBytes)"
scalar Flooding.gw[1].lo0.lo 	rcvdPkFromHL:count 	0
attr interpolationmode  none
attr source  packetReceivedFromUpper
attr title  "packets received from higher layer, count"
scalar Flooding.gw[1].lo0.lo 	rcvdPkFromHL:sum(packetBytes) 	0
attr interpolationmode  none
attr source  packetReceivedFromUpper
attr title  "packets received from higher layer, sum(packetBytes)"
scalar Flooding.gw[1].lo0.lo 	passedUpPk:count 	0
attr interpolationmode  none
attr source  packetSentToUpper
attr title  "packets passed to higher layer, count"
scalar Flooding.gw[1].lo0.lo 	passedUpPk:sum(packetBytes) 	0
attr interpolationmode  none
attr source  packetSentToUpper
attr title  "packets passed to higher layer, sum(packetBytes)"
scalar Flooding.gw[1].wlan[0].mgmt 	dataQueueLen:max 	10
attr interpolationmode  sample-hold
attr title  "data queue length, max"
scalar Flooding.gw[1].wlan[0].mgmt 	dataQueueLen:timeavg 	0.00016038769810375
attr interpolationmode  sample-hold
attr title  "data queue length, timeavg"
scalar Flooding.gw[1].wlan[0].mgmt 	dropPkByQueue:count 	4
attr interpolationmode  none
attr source  dropPkByQueue
attr title  "packets dropped by queue, count"
scalar Flooding.gw[1].wlan[0].mgmt 	dropPkByQueue:sum(packetBytes) 	504
attr interpolationmode  none
attr source  dropPkByQueue
attr title  "packets dropped by queue, sum(packetBytes)"
scalar Flooding.gw[1].wlan[0].mac 	"number of received packets" 	215227
scalar Flooding.gw[1].wlan[0].mac 	"number of collisions" 	17187
scalar Flooding.gw[1].wlan[0].mac 	"number of internal collisions" 	0
scalar Flooding.gw[1].wlan[0].mac 	"number of retry for AC 0" 	14097
scalar Flooding.gw[1].wlan[0].mac 	"sent and received bits" 	207039344
scalar Flooding.gw[1].wlan[0].mac 	"sent packet within AC 0" 	202264
scalar Flooding.gw[1].wlan[0].mac 	"sent in TXOP " 	0
scalar Flooding.gw[1].wlan[0].mac 	"sentWithoutRetry AC 0" 	196983
scalar Flooding.gw[1].wlan[0].mac 	"numGivenUp AC 0" 	283
scalar Flooding.gw[1].wlan[0].mac 	"numDropped AC 0" 	0
scalar Flooding.gw[1].wlan[0].mac 	rcvdPkFromHL:count 	205868
attr interpolationmode  none
attr source  packetReceivedFromUpper
attr title  "packets received from higher layer, count"
scalar Flooding.gw[1].wlan[0].mac 	rcvdPkFromHL:sum(packetBytes) 	25915576
attr interpolationmode  none
attr source  packetReceivedFromUpper
attr title  "packets received from higher layer, sum(packetBytes)"
scalar Flooding.gw[1].wlan[0].mac 	passedUpPk:count 	239728
attr interpolationmode  none
attr source  packetSentToUpper
attr title  "packets passed to higher layer, count"
scalar Flooding.gw[1].wlan[0].mac 	passedUpPk:sum(packetBytes) 	29878032
attr interpolationmode  none
attr source  packetSentToUpper
attr title  "packets passed to higher layer, sum(packetBytes)"
scalar Flooding.gw[1].wlan[0].mac 	rcvdPkFromLL:count 	839581
attr interpolationmode  none
attr source  packetReceivedFromLower
attr title  "packets received from lower layer, count"
scalar Flooding.gw[1].wlan[0].mac 	rcvdPkFromLL:sum(packetBytes) 	61227834
attr interpolationmode  none
attr source  packetReceivedFromLower
attr title  "packets received from lower layer, sum(packetBytes)"
scalar Flooding.gw[1].wlan[0].mac 	sentDownPk:count 	435192
attr interpolationmode  none
attr source  packetSentToLower
attr title  "packets sent to lower layer, count"
scalar Flooding.gw[1].wlan[0].mac 	sentDownPk:sum(packetBytes) 	30704976
attr interpolationmode  none
attr source  packetSentToLower
attr title  "packets sent to lower layer, sum(packetBytes)"
scalar Flooding.gw[1].wlan[0].radio 	lossRate:min 	0
attr interpolationmode  backward-sample-hold
attr title  "packet loss rate, min"
scalar Flooding.gw[1].wlan[0].radio 	lossRate:max 	0.34
attr interpolationmode  backward-sample-hold
attr title  "packet loss rate, max"
scalar Flooding.gw[1].wlan[0].radio 	lossRate:timeavg 	0.020817414585409
attr interpolationmode  backward-sample-hold
attr title  "packet loss rate, timeavg"
statistic Flooding.gw[1].wlan[0].radio 	channelNo:histogram
field count 1
field mean 0
field stddev -nan
field sum 0
field sqrsum 0
field min 0
field max 0
attr interpolationmode  sample-hold
attr title  "channel no, histogram"
bin	-INF	0
bin	-0.5	0
bin	-0.46666666666667	0
bin	-0.43333333333333	0
bin	-0.4	0
bin	-0.36666666666667	0
bin	-0.33333333333333	0
bin	-0.3	0
bin	-0.26666666666667	0
bin	-0.23333333333333	0
bin	-0.2	0
bin	-0.16666666666667	0
bin	-0.13333333333333	0
bin	-0.1	0
bin	-0.066666666666667	0
bin	-0.033333333333333	0
bin	0	1
bin	0.033333333333333	0
bin	0.066666666666667	0
bin	0.1	0
bin	0.13333333333333	0
bin	0.16666666666667	0
bin	0.2	0
bin	0.23333333333333	0
bin	0.26666666666667	0
bin	0.3	0
bin	0.33333333333333	0
bin	0.36666666666667	0
bin	0.4	0
bin	0.43333333333333	0
bin	0.46666666666667	0
bin	0.5	0
scalar Flooding.gw[1].wlan[0].radio 	bitrate:min 	11000000
attr interpolationmode  sample-hold
attr title  "tx bitrate, min"
attr unit  bps
scalar Flooding.gw[1].wlan[0].radio 	bitrate:max 	11000000
attr interpolationmode  sample-hold
attr title  "tx bitrate, max"
attr unit  bps
scalar Flooding.gw[1].wlan[0].radio 	bitrate:timeavg 	11000000
attr interpolationmode  sample-hold
attr title  "tx bitrate, timeavg"
attr unit  bps
scalar Flooding.gw[1].wlan[0].radio 	radioState:count 	2556668
attr interpolationmode  sample-hold
attr title  "radio state (enum), count"
scalar Flooding.gw[1].wlan[1].mgmt 	dataQueueLen:max 	10
attr interpolationmode  sample-hold
attr title  "data queue length, max"
scalar Flooding.gw[1].wlan[1].mgmt 	dataQueueLen:timeavg 	0.20894143960079
attr interpolationmode  sample-hold
attr title  "data queue length, timeavg"
scalar Flooding.gw[1].wlan[1].mgmt 	dropPkByQueue:count 	11
attr interpolationmode  none
attr source  dropPkByQueue
attr title  "packets dropped by queue, count"
scalar Flooding.gw[1].wlan[1].mgmt 	dropPkByQueue:sum(packetBytes) 	1386
attr interpolationmode  none
attr source  dropPkByQueue
attr title  "packets dropped by queue, sum(packetBytes)"
scalar Flooding.gw[1].wlan[1].mac 	"number of received packets" 	0
scalar Flooding.gw[1].wlan[1].mac 	"number of collisions" 	230003
scalar Flooding.gw[1].wlan[1].mac 	"number of internal collisions" 	0
scalar Flooding.gw[1].wlan[1].mac 	"number of retry for AC 0" 	0
scalar Flooding.gw[1].wlan[1].mac 	"sent and received bits" 	543500496
scalar Flooding.gw[1].wlan[1].mac 	"sent packet within AC 0" 	0
scalar Flooding.gw[1].wlan[1].mac 	"sent in TXOP " 	0
scalar Flooding.gw[1].wlan[1].mac 	"sentWithoutRetry AC 0" 	0
scalar Flooding.gw[1].wlan[1].mac 	"numGivenUp AC 0" 	0
scalar Flooding.gw[1].wlan[1].mac 	"numDropped AC 0" 	0
scalar Flooding.gw[1].wlan[1].mac 	rcvdPkFromHL:count 	539187
attr interpolationmode  none
attr source  packetReceivedFromUpper
attr title  "packets received from higher layer, count"
scalar Flooding.gw[1].wlan[1].mac 	rcvdPkFromHL:sum(packetBytes) 	67937562
attr interpolationmode  none
attr source  packetReceivedFromUpper
attr title  "packets received from higher layer, sum(packetBytes)"
scalar Flooding.gw[1].wlan[1].mac 	passedUpPk:count 	1038883
attr interpolationmode  none
attr source  packetSentToUpper
attr title  "packets passed to higher layer, count"
scalar Flooding.gw[1].wlan[1].mac 	passedUpPk:sum(packetBytes) 	130899258
attr interpolationmode  none
attr source  packetSentToUpper
attr title  "packets passed to higher layer, sum(packetBytes)"
scalar Flooding.gw[1].wlan[1].mac 	rcvdPkFromLL:count 	1268886
attr interpolationmode  none
attr source  packetReceivedFromLower
attr title  "packets received from lower layer, count"
scalar Flooding.gw[1].wlan[1].mac 	rcvdPkFromLL:sum(packetBytes) 	159879636
attr interpolationmode  none
attr source  packetReceivedFromLower
attr title  "packets received from lower layer, sum(packetBytes)"
scalar Flooding.gw[1].wlan[1].mac 	sentDownPk:count 	539187
attr interpolationmode  none
attr source  packetSentToLower
attr title  "packets sent to lower layer, count"
scalar Flooding.gw[1].wlan[1].mac 	sentDownPk:sum(packetBytes) 	67937562
attr interpolationmode  none
attr source  packetSentToLower
attr title  "packets sent to lower layer, sum(packetBytes)"
scalar Flooding.gw[1].wlan[1].radio 	lossRate:min 	0
attr interpolationmode  backward-sample-hold
attr title  "packet loss rate, min"
scalar Flooding.gw[1].wlan[1].radio 	lossRate:max 	0.54
attr interpolationmode  backward-sample-hold
attr title  "packet loss rate, max"
scalar Flooding.gw[1].wlan[1].radio 	lossRate:timeavg 	0.17937221013945
attr interpolationmode  backward-sample-hold
attr title  "packet loss rate, timeavg"
statistic Flooding.gw[1].wlan[1].radio 	channelNo:histogram
field count 1
field mean 1
field stddev -nan
field sum 1
field sqrsum 1
field min 1
field max 1
attr interpolationmode  sample-hold
attr title  "channel no, histogram"
bin	-INF	0
bin	0	0
bin	1	1
bin	2	0
scalar Flooding.gw[1].wlan[1].radio 	bitrate:min 	11000000
attr interpolationmode  sample-hold
attr title  "tx bitrate, min"
attr unit  bps
scalar Flooding.gw[1].wlan[1].radio 	bitrate:max 	11000000
attr interpolationmode  sample-hold
attr title  "tx bitrate, max"
attr unit  bps
scalar Flooding.gw[1].wlan[1].radio 	bitrate:timeavg 	11000000
attr interpolationmode  sample-hold
attr title  "tx bitrate, timeavg"
attr unit  bps
scalar Flooding.gw[1].wlan[1].radio 	radioState:count 	3804512
attr interpolationmode  sample-hold
attr title  "radio state (enum), count"
scalar Flooding.gw[1].pingApp[0] 	numOutOfOrderArrivals:last 	-nan
attr interpolationmode  none
attr title  "ping out-of-order arrivals, last"
scalar Flooding.gw[1].pingApp[0] 	pingRxSeq:count 	0
attr interpolationmode  none
attr title  "ping rx seq, count"
scalar Flooding.gw[1].pingApp[0] 	pingTxSeq:count 	0
attr interpolationmode  none
attr title  "ping tx seq, count"
scalar Flooding.gw[1].pingApp[0] 	numLost:last 	-nan
attr interpolationmode  none
attr title  "pings lost, last"
statistic Flooding.gw[1].pingApp[0] 	rtt:histogram
field count 0
field mean -nan
field stddev -nan
field sum 0
field sqrsum 0
field min -nan
field max -nan
attr interpolationmode  none
attr title  "ping round-trip time, histogram"
attr unit  s
bin	-INF	0
bin	-0.5	0
bin	-0.46666666666667	0
bin	-0.43333333333333	0
bin	-0.4	0
bin	-0.36666666666667	0
bin	-0.33333333333333	0
bin	-0.3	0
bin	-0.26666666666667	0
bin	-0.23333333333333	0
bin	-0.2	0
bin	-0.16666666666667	0
bin	-0.13333333333333	0
bin	-0.1	0
bin	-0.066666666666667	0
bin	-0.033333333333333	0
bin	0	0
bin	0.033333333333333	0
bin	0.066666666666667	0
bin	0.1	0
bin	0.13333333333333	0
bin	0.16666666666667	0
bin	0.2	0
bin	0.23333333333333	0
bin	0.26666666666667	0
bin	0.3	0
bin	0.33333333333333	0
bin	0.36666666666667	0
bin	0.4	0
bin	0.43333333333333	0
bin	0.46666666666667	0
bin	0.5	0
scalar Flooding.gw[1].pingTestApp[0] 	numOutOfOrderArrivals:last 	-nan
attr interpolationmode  none
attr title  "ping out-of-order arrivals, last"
scalar Flooding.gw[1].pingTestApp[0] 	pingRxSeq:count 	0
attr interpolationmode  none
attr title  "ping rx seq, count"
scalar Flooding.gw[1].pingTestApp[0] 	pingTxSeq:count 	0
attr interpolationmode  none
attr title  "ping tx seq, count"
scalar Flooding.gw[1].pingTestApp[0] 	numLost:last 	-nan
attr interpolationmode  none
attr title  "pings lost, last"
statistic Flooding.gw[1].pingTestApp[0] 	rtt:histogram
field count 0
field mean -nan
field stddev -nan
field sum 0
field sqrsum 0
field min -nan
field max -nan
attr interpolationmode  none
attr title  "ping round-trip time, histogram"
attr unit  s
bin	-INF	0
bin	-0.5	0
bin	-0.46666666666667	0
bin	-0.43333333333333	0
bin	-0.4	0
bin	-0.36666666666667	0
bin	-0.33333333333333	0
bin	-0.3	0
bin	-0.26666666666667	0
bin	-0.23333333333333	0
bin	-0.2	0
bin	-0.16666666666667	0
bin	-0.13333333333333	0
bin	-0.1	0
bin	-0.066666666666667	0
bin	-0.033333333333333	0
bin	0	0
bin	0.033333333333333	0
bin	0.066666666666667	0
bin	0.1	0
bin	0.13333333333333	0
bin	0.16666666666667	0
bin	0.2	0
bin	0.23333333333333	0
bin	0.26666666666667	0
bin	0.3	0
bin	0.33333333333333	0
bin	0.36666666666667	0
bin	0.4	0
bin	0.43333333333333	0
bin	0.46666666666667	0
bin	0.5	0
scalar Flooding.gw[1].manetrouting 	OLSR_HNA_Messages_(Forwarded) 	0
scalar Flooding.gw[1].manetrouting 	OLSR_TC_Messages_(Forwarded) 	2231
scalar Flooding.gw[1].manetrouting 	OLSR_Total_HELLO 	2053
scalar Flooding.gw[1].manetrouting 	OLSR_Total_HNA_(originated) 	758
scalar Flooding.gw[1].manetrouting 	OLSR_Total_TC 	71
scalar Flooding.gw[1].manetrouting 	OLSR_Total_Messages_Sent 	5113
scalar Flooding.gw[2].networkLayer.arp 	failedARPResolution:count 	1
attr title  "ARP failed resolutions, count"
scalar Flooding.gw[2].networkLayer.arp 	completedARPResolution:count 	259
attr title  "ARP completed resolutions, count"
scalar Flooding.gw[2].networkLayer.arp 	initiatedARPResolution:count 	149
attr title  "ARP initiated resolutions, count"
scalar Flooding.gw[2].networkLayer.arp 	sentReply:count 	4
attr title  "ARP replies sent, count"
scalar Flooding.gw[2].networkLayer.arp 	sentReq:count 	152
attr title  "ARP request sent, count"
scalar Flooding.gw[2].lo0.lo 	droppedPkBitError:count 	0
attr interpolationmode  none
attr source  dropPkBitError
attr title  "packets dropped/bit error, count"
scalar Flooding.gw[2].lo0.lo 	droppedPkBitError:sum(packetBytes) 	0
attr interpolationmode  none
attr source  dropPkBitError
attr title  "packets dropped/bit error, sum(packetBytes)"
scalar Flooding.gw[2].lo0.lo 	rcvdPkFromHL:count 	0
attr interpolationmode  none
attr source  packetReceivedFromUpper
attr title  "packets received from higher layer, count"
scalar Flooding.gw[2].lo0.lo 	rcvdPkFromHL:sum(packetBytes) 	0
attr interpolationmode  none
attr source  packetReceivedFromUpper
attr title  "packets received from higher layer, sum(packetBytes)"
scalar Flooding.gw[2].lo0.lo 	passedUpPk:count 	0
attr interpolationmode  none
attr source  packetSentToUpper
attr title  "packets passed to higher layer, count"
scalar Flooding.gw[2].lo0.lo 	passedUpPk:sum(packetBytes) 	0
attr interpolationmode  none
attr source  packetSentToUpper
attr title  "packets passed to higher layer, sum(packetBytes)"
scalar Flooding.gw[2].wlan[0].mgmt 	dataQueueLen:max 	5
attr interpolationmode  sample-hold
attr title  "data queue length, max"
scalar Flooding.gw[2].wlan[0].mgmt 	dataQueueLen:timeavg 	6.783275466794e-05
attr interpolationmode  sample-hold
attr title  "data queue length, timeavg"
scalar Flooding.gw[2].wlan[0].mgmt 	dropPkByQueue:count 	0
attr interpolationmode  none
attr source  dropPkByQueue
attr title  "packets dropped by queue, count"
scalar Flooding.gw[2].wlan[0].mgmt 	dropPkByQueue:sum(packetBytes) 	0
attr interpolationmode  none
attr source  dropPkByQueue
attr title  "packets dropped by queue, sum(packetBytes)"
scalar Flooding.gw[2].wlan[0].mac 	"number of received packets" 	221752
scalar Flooding.gw[2].wlan[0].mac 	"number of collisions" 	21771
scalar Flooding.gw[2].wlan[0].mac 	"number of internal collisions" 	0
scalar Flooding.gw[2].wlan[0].mac 	"number of retry for AC 0" 	4074
scalar Flooding.gw[2].wlan[0].mac 	"sent and received bits" 	216842160
scalar Flooding.gw[2].wlan[0].mac 	"sent packet within AC 0" 	207458
scalar Flooding.gw[2].wlan[0].mac 	"sent in TXOP " 	0
scalar Flooding.gw[2].wlan[0].mac 	"sentWithoutRetry AC 0" 	205528
scalar Flooding.gw[2].wlan[0].mac 	"numGivenUp AC 0" 	98
scalar Flooding.gw[2].wlan[0].mac 	"numDropped AC 0" 	0
scalar Flooding.gw[2].wlan[0].mac 	rcvdPkFromHL:count 	215697
attr interpolationmode  none
attr source  packetReceivedFromUpper
attr title  "packets received from higher layer, count"
scalar Flooding.gw[2].wlan[0].mac 	rcvdPkFromHL:sum(packetBytes) 	27117618
attr interpolationmode  none
attr source  packetReceivedFromUpper
attr title  "packets received from higher layer, sum(packetBytes)"
scalar Flooding.gw[2].wlan[0].mac 	passedUpPk:count 	256281
attr interpolationmode  none
attr source  packetSentToUpper
attr title  "packets passed to higher layer, count"
scalar Flooding.gw[2].wlan[0].mac 	passedUpPk:sum(packetBytes) 	31732674
attr interpolationmode  none
attr source  packetSentToUpper
attr title  "packets passed to higher layer, sum(packetBytes)"
scalar Flooding.gw[2].wlan[0].mac 	rcvdPkFromLL:count 	789240
attr interpolationmode  none
attr source  packetReceivedFromLower
attr title  "packets received from lower layer, count"
scalar Flooding.gw[2].wlan[0].mac 	rcvdPkFromLL:sum(packetBytes) 	58319260
attr interpolationmode  none
attr source  packetReceivedFromLower
attr title  "packets received from lower layer, sum(packetBytes)"
scalar Flooding.gw[2].wlan[0].mac 	sentDownPk:count 	441523
attr interpolationmode  none
attr source  packetSentToLower
attr title  "packets sent to lower layer, count"
scalar Flooding.gw[2].wlan[0].mac 	sentDownPk:sum(packetBytes) 	30735470
attr interpolationmode  none
attr source  packetSentToLower
attr title  "packets sent to lower layer, sum(packetBytes)"
scalar Flooding.gw[2].wlan[0].radio 	lossRate:min 	0
attr interpolationmode  backward-sample-hold
attr title  "packet loss rate, min"
scalar Flooding.gw[2].wlan[0].radio 	lossRate:max 	0.28
attr interpolationmode  backward-sample-hold
attr title  "packet loss rate, max"
scalar Flooding.gw[2].wlan[0].radio 	lossRate:timeavg 	0.027342723922804
attr interpolationmode  backward-sample-hold
attr title  "packet loss rate, timeavg"
statistic Flooding.gw[2].wlan[0].radio 	channelNo:histogram
field count 1
field mean 0
field stddev -nan
field sum 0
field sqrsum 0
field min 0
field max 0
attr interpolationmode  sample-hold
attr title  "channel no, histogram"
bin	-INF	0
bin	-0.5	0
bin	-0.46666666666667	0
bin	-0.43333333333333	0
bin	-0.4	0
bin	-0.36666666666667	0
bin	-0.33333333333333	0
bin	-0.3	0
bin	-0.26666666666667	0
bin	-0.23333333333333	0
bin	-0.2	0
bin	-0.16666666666667	0
bin	-0.13333333333333	0
bin	-0.1	0
bin	-0.066666666666667	0
bin	-0.033333333333333	0
bin	0	1
bin	0.033333333333333	0
bin	0.066666666666667	0
bin	0.1	0
bin	0.13333333333333	0
bin	0.16666666666667	0
bin	0.2	0
bin	0.23333333333333	0
bin	0.26666666666667	0
bin	0.3	0
bin	0.33333333333333	0
bin	0.36666666666667	0
bin	0.4	0
bin	0.43333333333333	0
bin	0.46666666666667	0
bin	0.5	0
scalar Flooding.gw[2].wlan[0].radio 	bitrate:min 	11000000
attr interpolationmode  sample-hold
attr title  "tx bitrate, min"
attr unit  bps
scalar Flooding.gw[2].wlan[0].radio 	bitrate:max 	11000000
attr interpolationmode  sample-hold
attr title  "tx bitrate, max"
attr unit  bps
scalar Flooding.gw[2].wlan[0].radio 	bitrate:timeavg 	11000000
attr interpolationmode  sample-hold
attr title  "tx bitrate, timeavg"
attr unit  bps
scalar Flooding.gw[2].wlan[0].radio 	radioState:count 	2461038
attr interpolationmode  sample-hold
attr title  "radio state (enum), count"
scalar Flooding.gw[2].wlan[1].mgmt 	dataQueueLen:max 	10
attr interpolationmode  sample-hold
attr title  "data queue length, max"
scalar Flooding.gw[2].wlan[1].mgmt 	dataQueueLen:timeavg 	0.20879062556625
attr interpolationmode  sample-hold
attr title  "data queue length, timeavg"
scalar Flooding.gw[2].wlan[1].mgmt 	dropPkByQueue:count 	16
attr interpolationmode  none
attr source  dropPkByQueue
attr title  "packets dropped by queue, count"
scalar Flooding.gw[2].wlan[1].mgmt 	dropPkByQueue:sum(packetBytes) 	2016
attr interpolationmode  none
attr source  dropPkByQueue
attr title  "packets dropped by queue, sum(packetBytes)"
scalar Flooding.gw[2].wlan[1].mac 	"number of received packets" 	0
scalar Flooding.gw[2].wlan[1].mac 	"number of collisions" 	242701
scalar Flooding.gw[2].wlan[1].mac 	"number of internal collisions" 	0
scalar Flooding.gw[2].wlan[1].mac 	"number of retry for AC 0" 	0
scalar Flooding.gw[2].wlan[1].mac 	"sent and received bits" 	540807120
scalar Flooding.gw[2].wlan[1].mac 	"sent packet within AC 0" 	0
scalar Flooding.gw[2].wlan[1].mac 	"sent in TXOP " 	0
scalar Flooding.gw[2].wlan[1].mac 	"sentWithoutRetry AC 0" 	0
scalar Flooding.gw[2].wlan[1].mac 	"numGivenUp AC 0" 	0
scalar Flooding.gw[2].wlan[1].mac 	"numDropped AC 0" 	0
scalar Flooding.gw[2].wlan[1].mac 	rcvdPkFromHL:count 	536515
attr interpolationmode  none
attr source  packetReceivedFromUpper
attr title  "packets received from higher layer, count"
scalar Flooding.gw[2].wlan[1].mac 	rcvdPkFromHL:sum(packetBytes) 	67600890
attr interpolationmode  none
attr source  packetReceivedFromUpper
attr title  "packets received from higher layer, sum(packetBytes)"
scalar Flooding.gw[2].wlan[1].mac 	passedUpPk:count 	1028857
attr interpolationmode  none
attr source  packetSentToUpper
attr title  "packets passed to higher layer, count"
scalar Flooding.gw[2].wlan[1].mac 	passedUpPk:sum(packetBytes) 	129635982
attr interpolationmode  none
attr source  packetSentToUpper
attr title  "packets passed to higher layer, sum(packetBytes)"
scalar Flooding.gw[2].wlan[1].mac 	rcvdPkFromLL:count 	1271558
attr interpolationmode  none
attr source  packetReceivedFromLower
attr title  "packets received from lower layer, count"
scalar Flooding.gw[2].wlan[1].mac 	rcvdPkFromLL:sum(packetBytes) 	160216308
attr interpolationmode  none
attr source  packetReceivedFromLower
attr title  "packets received from lower layer, sum(packetBytes)"
scalar Flooding.gw[2].wlan[1].mac 	sentDownPk:count 	536515
attr interpolationmode  none
attr source  packetSentToLower
attr title  "packets sent to lower layer, count"
scalar Flooding.gw[2].wlan[1].mac 	sentDownPk:sum(packetBytes) 	67600890
attr interpolationmode  none
attr source  packetSentToLower
attr title  "packets sent to lower layer, sum(packetBytes)"
scalar Flooding.gw[2].wlan[1].radio 	lossRate:min 	0
attr interpolationmode  backward-sample-hold
attr title  "packet loss rate, min"
scalar Flooding.gw[2].wlan[1].radio 	lossRate:max 	0.58
attr interpolationmode  backward-sample-hold
attr title  "packet loss rate, max"
scalar Flooding.gw[2].wlan[1].radio 	lossRate:timeavg 	0.18946510648271
attr interpolationmode  backward-sample-hold
attr title  "packet loss rate, timeavg"
statistic Flooding.gw[2].wlan[1].radio 	channelNo:histogram
field count 1
field mean 1
field stddev -nan
field sum 1
field sqrsum 1
field min 1
field max 1
attr interpolationmode  sample-hold
attr title  "channel no, histogram"
bin	-INF	0
bin	0	0
bin	1	1
bin	2	0
scalar Flooding.gw[2].wlan[1].radio 	bitrate:min 	11000000
attr interpolationmode  sample-hold
attr title  "tx bitrate, min"
attr unit  bps
scalar Flooding.gw[2].wlan[1].radio 	bitrate:max 	11000000
attr interpolationmode  sample-hold
attr title  "tx bitrate, max"
attr unit  bps
scalar Flooding.gw[2].wlan[1].radio 	bitrate:timeavg 	11000000
attr interpolationmode  sample-hold
attr title  "tx bitrate, timeavg"
attr unit  bps
scalar Flooding.gw[2].wlan[1].radio 	radioState:count 	3796145
attr interpolationmode  sample-hold
attr title  "radio state (enum), count"
scalar Flooding.gw[2].pingApp[0] 	numOutOfOrderArrivals:last 	-nan
attr interpolationmode  none
attr title  "ping out-of-order arrivals, last"
scalar Flooding.gw[2].pingApp[0] 	pingRxSeq:count 	0
attr interpolationmode  none
attr title  "ping rx seq, count"
scalar Flooding.gw[2].pingApp[0] 	pingTxSeq:count 	0
attr interpolationmode  none
attr title  "ping tx seq, count"
scalar Flooding.gw[2].pingApp[0] 	numLost:last 	-nan
attr interpolationmode  none
attr title  "pings lost, last"
statistic Flooding.gw[2].pingApp[0] 	rtt:histogram
field count 0
field mean -nan
field stddev -nan
field sum 0
field sqrsum 0
field min -nan
field max -nan
attr interpolationmode  none
attr title  "ping round-trip time, histogram"
attr unit  s
bin	-INF	0
bin	-0.5	0
bin	-0.46666666666667	0
bin	-0.43333333333333	0
bin	-0.4	0
bin	-0.36666666666667	0
bin	-0.33333333333333	0
bin	-0.3	0
bin	-0.26666666666667	0
bin	-0.23333333333333	0
bin	-0.2	0
bin	-0.16666666666667	0
bin	-0.13333333333333	0
bin	-0.1	0
bin	-0.066666666666667	0
bin	-0.033333333333333	0
bin	0	0
bin	0.033333333333333	0
bin	0.066666666666667	0
bin	0.1	0
bin	0.13333333333333	0
bin	0.16666666666667	0
bin	0.2	0
bin	0.23333333333333	0
bin	0.26666666666667	0
bin	0.3	0
bin	0.33333333333333	0
bin	0.36666666666667	0
bin	0.4	0
bin	0.43333333333333	0
bin	0.46666666666667	0
bin	0.5	0
scalar Flooding.gw[2].pingTestApp[0] 	numOutOfOrderArrivals:last 	-nan
attr interpolationmode  none
attr title  "ping out-of-order arrivals, last"
scalar Flooding.gw[2].pingTestApp[0] 	pingRxSeq:count 	0
attr interpolationmode  none
attr title  "ping rx seq, count"
scalar Flooding.gw[2].pingTestApp[0] 	pingTxSeq:count 	0
attr interpolationmode  none
attr title  "ping tx seq, count"
scalar Flooding.gw[2].pingTestApp[0] 	numLost:last 	-nan
attr interpolationmode  none
attr title  "pings lost, last"
statistic Flooding.gw[2].pingTestApp[0] 	rtt:histogram
field count 0
field mean -nan
field stddev -nan
field sum 0
field sqrsum 0
field min -nan
field max -nan
attr interpolationmode  none
attr title  "ping round-trip time, histogram"
attr unit  s
bin	-INF	0
bin	-0.5	0
bin	-0.46666666666667	0
bin	-0.43333333333333	0
bin	-0.4	0
bin	-0.36666666666667	0
bin	-0.33333333333333	0
bin	-0.3	0
bin	-0.26666666666667	0
bin	-0.23333333333333	0
bin	-0.2	0
bin	-0.16666666666667	0
bin	-0.13333333333333	0
bin	-0.1	0
bin	-0.066666666666667	0
bin	-0.033333333333333	0
bin	0	0
bin	0.033333333333333	0
bin	0.066666666666667	0
bin	0.1	0
bin	0.13333333333333	0
bin	0.16666666666667	0
bin	0.2	0
bin	0.23333333333333	0
bin	0.26666666666667	0
bin	0.3	0
bin	0.33333333333333	0
bin	0.36666666666667	0
bin	0.4	0
bin	0.43333333333333	0
bin	0.46666666666667	0
bin	0.5	0
scalar Flooding.gw[2].manetrouting 	OLSR_HNA_Messages_(Forwarded) 	0
scalar Flooding.gw[2].manetrouting 	OLSR_TC_Messages_(Forwarded) 	2414
scalar Flooding.gw[2].manetrouting 	OLSR_Total_HELLO 	2058
scalar Flooding.gw[2].manetrouting 	OLSR_Total_HNA_(originated) 	756
scalar Flooding.gw[2].manetrouting 	OLSR_Total_TC 	756
scalar Flooding.gw[2].manetrouting 	OLSR_Total_Messages_Sent 	5984
scalar Flooding.gw[3].networkLayer.arp 	failedARPResolution:count 	0
attr title  "ARP failed resolutions, count"
scalar Flooding.gw[3].networkLayer.arp 	completedARPResolution:count 	194
attr title  "ARP completed resolutions, count"
scalar Flooding.gw[3].networkLayer.arp 	initiatedARPResolution:count 	171
attr title  "ARP initiated resolutions, count"
scalar Flooding.gw[3].networkLayer.arp 	sentReply:count 	3
attr title  "ARP replies sent, count"
scalar Flooding.gw[3].networkLayer.arp 	sentReq:count 	171
attr title  "ARP request sent, count"
scalar Flooding.gw[3].lo0.lo 	droppedPkBitError:count 	0
attr interpolationmode  none
attr source  dropPkBitError
attr title  "packets dropped/bit error, count"
scalar Flooding.gw[3].lo0.lo 	droppedPkBitError:sum(packetBytes) 	0
attr interpolationmode  none
attr source  dropPkBitError
attr title  "packets dropped/bit error, sum(packetBytes)"
scalar Flooding.gw[3].lo0.lo 	rcvdPkFromHL:count 	0
attr interpolationmode  none
attr source  packetReceivedFromUpper
attr title  "packets received from higher layer, count"
scalar Flooding.gw[3].lo0.lo 	rcvdPkFromHL:sum(packetBytes) 	0
attr interpolationmode  none
attr source  packetReceivedFromUpper
attr title  "packets received from higher layer, sum(packetBytes)"
scalar Flooding.gw[3].lo0.lo 	passedUpPk:count 	0
attr interpolationmode  none
attr source  packetSentToUpper
attr title  "packets passed to higher layer, count"
scalar Flooding.gw[3].lo0.lo 	passedUpPk:sum(packetBytes) 	0
attr interpolationmode  none
attr source  packetSentToUpper
attr title  "packets passed to higher layer, sum(packetBytes)"
scalar Flooding.gw[3].wlan[0].mgmt 	dataQueueLen:max 	1
attr interpolationmode  sample-hold
attr title  "data queue length, max"
scalar Flooding.gw[3].wlan[0].mgmt 	dataQueueLen:timeavg 	8.3127960704177e-06
attr interpolationmode  sample-hold
attr title  "data queue length, timeavg"
scalar Flooding.gw[3].wlan[0].mgmt 	dropPkByQueue:count 	0
attr interpolationmode  none
attr source  dropPkByQueue
attr title  "packets dropped by queue, count"
scalar Flooding.gw[3].wlan[0].mgmt 	dropPkByQueue:sum(packetBytes) 	0
attr interpolationmode  none
attr source  dropPkByQueue
attr title  "packets dropped by queue, sum(packetBytes)"
scalar Flooding.gw[3].wlan[0].mac 	"number of received packets" 	129841
scalar Flooding.gw[3].wlan[0].mac 	"number of collisions" 	2142
scalar Flooding.gw[3].wlan[0].mac 	"number of internal collisions" 	0
scalar Flooding.gw[3].wlan[0].mac 	"number of retry for AC 0" 	576
scalar Flooding.gw[3].wlan[0].mac 	"sent and received bits" 	127657424
scalar Flooding.gw[3].wlan[0].mac 	"sent packet within AC 0" 	121512
scalar Flooding.gw[3].wlan[0].mac 	"sent in TXOP " 	0
scalar Flooding.gw[3].wlan[0].mac 	"sentWithoutRetry AC 0" 	121464
scalar Flooding.gw[3].wlan[0].mac 	"numGivenUp AC 0" 	87
scalar Flooding.gw[3].wlan[0].mac 	"numDropped AC 0" 	0
scalar Flooding.gw[3].wlan[0].mac 	rcvdPkFromHL:count 	127490
attr interpolationmode  none
attr source  packetReceivedFromUpper
attr title  "packets received from higher layer, count"
scalar Flooding.gw[3].wlan[0].mac 	rcvdPkFromHL:sum(packetBytes) 	15968140
attr interpolationmode  none
attr source  packetReceivedFromUpper
attr title  "packets received from higher layer, sum(packetBytes)"
scalar Flooding.gw[3].wlan[0].mac 	passedUpPk:count 	145421
attr interpolationmode  none
attr source  packetSentToUpper
attr title  "packets passed to higher layer, count"
scalar Flooding.gw[3].wlan[0].mac 	passedUpPk:sum(packetBytes) 	18033990
attr interpolationmode  none
attr source  packetSentToUpper
attr title  "packets passed to higher layer, sum(packetBytes)"
scalar Flooding.gw[3].wlan[0].mac 	rcvdPkFromLL:count 	271920
attr interpolationmode  none
attr source  packetReceivedFromLower
attr title  "packets received from lower layer, count"
scalar Flooding.gw[3].wlan[0].mac 	rcvdPkFromLL:sum(packetBytes) 	20245652
attr interpolationmode  none
attr source  packetReceivedFromLower
attr title  "packets received from lower layer, sum(packetBytes)"
scalar Flooding.gw[3].wlan[0].mac 	sentDownPk:count 	257907
attr interpolationmode  none
attr source  packetSentToLower
attr title  "packets sent to lower layer, count"
scalar Flooding.gw[3].wlan[0].mac 	sentDownPk:sum(packetBytes) 	17858490
attr interpolationmode  none
attr source  packetSentToLower
attr title  "packets sent to lower layer, sum(packetBytes)"
scalar Flooding.gw[3].wlan[0].radio 	lossRate:min 	0
attr interpolationmode  backward-sample-hold
attr title  "packet loss rate, min"
scalar Flooding.gw[3].wlan[0].radio 	lossRate:max 	0.2
attr interpolationmode  backward-sample-hold
attr title  "packet loss rate, max"
scalar Flooding.gw[3].wlan[0].radio 	lossRate:timeavg 	0.0074716192561965
attr interpolationmode  backward-sample-hold
attr title  "packet loss rate, timeavg"
statistic Flooding.gw[3].wlan[0].radio 	channelNo:histogram
field count 1
field mean 0
field stddev -nan
field sum 0
field sqrsum 0
field min 0
field max 0
attr interpolationmode  sample-hold
attr title  "channel no, histogram"
bin	-INF	0
bin	-0.5	0
bin	-0.46666666666667	0
bin	-0.43333333333333	0
bin	-0.4	0
bin	-0.36666666666667	0
bin	-0.33333333333333	0
bin	-0.3	0
bin	-0.26666666666667	0
bin	-0.23333333333333	0
bin	-0.2	0
bin	-0.16666666666667	0
bin	-0.13333333333333	0
bin	-0.1	0
bin	-0.066666666666667	0
bin	-0.033333333333333	0
bin	0	1
bin	0.033333333333333	0
bin	0.066666666666667	0
bin	0.1	0
bin	0.13333333333333	0
bin	0.16666666666667	0
bin	0.2	0
bin	0.23333333333333	0
bin	0.26666666666667	0
bin	0.3	0
bin	0.33333333333333	0
bin	0.36666666666667	0
bin	0.4	0
bin	0.43333333333333	0
bin	0.46666666666667	0
bin	0.5	0
scalar Flooding.gw[3].wlan[0].radio 	bitrate:min 	11000000
attr interpolationmode  sample-hold
attr title  "tx bitrate, min"
attr unit  bps
scalar Flooding.gw[3].wlan[0].radio 	bitrate:max 	11000000
attr interpolationmode  sample-hold
attr title  "tx bitrate, max"
attr unit  bps
scalar Flooding.gw[3].wlan[0].radio 	bitrate:timeavg 	11000000
attr interpolationmode  sample-hold
attr title  "tx bitrate, timeavg"
attr unit  bps
scalar Flooding.gw[3].wlan[0].radio 	radioState:count 	1059295
attr interpolationmode  sample-hold
attr title  "radio state (enum), count"
scalar Flooding.gw[3].wlan[1].mgmt 	dataQueueLen:max 	10
attr interpolationmode  sample-hold
attr title  "data queue length, max"
scalar Flooding.gw[3].wlan[1].mgmt 	dataQueueLen:timeavg 	0.23057132549518
attr interpolationmode  sample-hold
attr title  "data queue length, timeavg"
scalar Flooding.gw[3].wlan[1].mgmt 	dropPkByQueue:count 	76
attr interpolationmode  none
attr source  dropPkByQueue
attr title  "packets dropped by queue, count"
scalar Flooding.gw[3].wlan[1].mgmt 	dropPkByQueue:sum(packetBytes) 	9576
attr interpolationmode  none
attr source  dropPkByQueue
attr title  "packets dropped by queue, sum(packetBytes)"
scalar Flooding.gw[3].wlan[1].mac 	"number of received packets" 	0
scalar Flooding.gw[3].wlan[1].mac 	"number of collisions" 	139590
scalar Flooding.gw[3].wlan[1].mac 	"number of internal collisions" 	0
scalar Flooding.gw[3].wlan[1].mac 	"number of retry for AC 0" 	0
scalar Flooding.gw[3].wlan[1].mac 	"sent and received bits" 	620500608
scalar Flooding.gw[3].wlan[1].mac 	"sent packet within AC 0" 	0
scalar Flooding.gw[3].wlan[1].mac 	"sent in TXOP " 	0
scalar Flooding.gw[3].wlan[1].mac 	"sentWithoutRetry AC 0" 	0
scalar Flooding.gw[3].wlan[1].mac 	"numGivenUp AC 0" 	0
scalar Flooding.gw[3].wlan[1].mac 	"numDropped AC 0" 	0
scalar Flooding.gw[3].wlan[1].mac 	rcvdPkFromHL:count 	615578
attr interpolationmode  none
attr source  packetReceivedFromUpper
attr title  "packets received from higher layer, count"
scalar Flooding.gw[3].wlan[1].mac 	rcvdPkFromHL:sum(packetBytes) 	77562828
attr interpolationmode  none
attr source  packetReceivedFromUpper
attr title  "packets received from higher layer, sum(packetBytes)"
scalar Flooding.gw[3].wlan[1].mac 	passedUpPk:count 	1052907
attr interpolationmode  none
attr source  packetSentToUpper
attr title  "packets passed to higher layer, count"
scalar Flooding.gw[3].wlan[1].mac 	passedUpPk:sum(packetBytes) 	132666282
attr interpolationmode  none
attr source  packetSentToUpper
attr title  "packets passed to higher layer, sum(packetBytes)"
scalar Flooding.gw[3].wlan[1].mac 	rcvdPkFromLL:count 	1192497
attr interpolationmode  none
attr source  packetReceivedFromLower
attr title  "packets received from lower layer, count"
scalar Flooding.gw[3].wlan[1].mac 	rcvdPkFromLL:sum(packetBytes) 	150254622
attr interpolationmode  none
attr source  packetReceivedFromLower
attr title  "packets received from lower layer, sum(packetBytes)"
scalar Flooding.gw[3].wlan[1].mac 	sentDownPk:count 	615577
attr interpolationmode  none
attr source  packetSentToLower
attr title  "packets sent to lower layer, count"
scalar Flooding.gw[3].wlan[1].mac 	sentDownPk:sum(packetBytes) 	77562702
attr interpolationmode  none
attr source  packetSentToLower
attr title  "packets sent to lower layer, sum(packetBytes)"
scalar Flooding.gw[3].wlan[1].radio 	lossRate:min 	0
attr interpolationmode  backward-sample-hold
attr title  "packet loss rate, min"
scalar Flooding.gw[3].wlan[1].radio 	lossRate:max 	0.42
attr interpolationmode  backward-sample-hold
attr title  "packet loss rate, max"
scalar Flooding.gw[3].wlan[1].radio 	lossRate:timeavg 	0.11643546589781
attr interpolationmode  backward-sample-hold
attr title  "packet loss rate, timeavg"
statistic Flooding.gw[3].wlan[1].radio 	channelNo:histogram
field count 1
field mean 1
field stddev -nan
field sum 1
field sqrsum 1
field min 1
field max 1
attr interpolationmode  sample-hold
attr title  "channel no, histogram"
bin	-INF	0
bin	0	0
bin	1	1
bin	2	0
scalar Flooding.gw[3].wlan[1].radio 	bitrate:min 	11000000
attr interpolationmode  sample-hold
attr title  "tx bitrate, min"
attr unit  bps
scalar Flooding.gw[3].wlan[1].radio 	bitrate:max 	11000000
attr interpolationmode  sample-hold
attr title  "tx bitrate, max"
attr unit  bps
scalar Flooding.gw[3].wlan[1].radio 	bitrate:timeavg 	11000000
attr interpolationmode  sample-hold
attr title  "tx bitrate, timeavg"
attr unit  bps
scalar Flooding.gw[3].wlan[1].radio 	radioState:count 	3899696
attr interpolationmode  sample-hold
attr title  "radio state (enum), count"
scalar Flooding.gw[3].pingApp[0] 	numOutOfOrderArrivals:last 	-nan
attr interpolationmode  none
attr title  "ping out-of-order arrivals, last"
scalar Flooding.gw[3].pingApp[0] 	pingRxSeq:count 	0
attr interpolationmode  none
attr title  "ping rx seq, count"
scalar Flooding.gw[3].pingApp[0] 	pingTxSeq:count 	0
attr interpolationmode  none
attr title  "ping tx seq, count"
scalar Flooding.gw[3].pingApp[0] 	numLost:last 	-nan
attr interpolationmode  none
attr title  "pings lost, last"
statistic Flooding.gw[3].pingApp[0] 	rtt:histogram
field count 0
field mean -nan
field stddev -nan
field sum 0
field sqrsum 0
field min -nan
field max -nan
attr interpolationmode  none
attr title  "ping round-trip time, histogram"
attr unit  s
bin	-INF	0
bin	-0.5	0
bin	-0.46666666666667	0
bin	-0.43333333333333	0
bin	-0.4	0
bin	-0.36666666666667	0
bin	-0.33333333333333	0
bin	-0.3	0
bin	-0.26666666666667	0
bin	-0.23333333333333	0
bin	-0.2	0
bin	-0.16666666666667	0
bin	-0.13333333333333	0
bin	-0.1	0
bin	-0.066666666666667	0
bin	-0.033333333333333	0
bin	0	0
bin	0.033333333333333	0
bin	0.066666666666667	0
bin	0.1	0
bin	0.13333333333333	0
bin	0.16666666666667	0
bin	0.2	0
bin	0.23333333333333	0
bin	0.26666666666667	0
bin	0.3	0
bin	0.33333333333333	0
bin	0.36666666666667	0
bin	0.4	0
bin	0.43333333333333	0
bin	0.46666666666667	0
bin	0.5	0
scalar Flooding.gw[3].pingTestApp[0] 	numOutOfOrderArrivals:last 	-nan
attr interpolationmode  none
attr title  "ping out-of-order arrivals, last"
scalar Flooding.gw[3].pingTestApp[0] 	pingRxSeq:count 	0
attr interpolationmode  none
attr title  "ping rx seq, count"
scalar Flooding.gw[3].pingTestApp[0] 	pingTxSeq:count 	0
attr interpolationmode  none
attr title  "ping tx seq, count"
scalar Flooding.gw[3].pingTestApp[0] 	numLost:last 	-nan
attr interpolationmode  none
attr title  "pings lost, last"
statistic Flooding.gw[3].pingTestApp[0] 	rtt:histogram
field count 0
field mean -nan
field stddev -nan
field sum 0
field sqrsum 0
field min -nan
field max -nan
attr interpolationmode  none
attr title  "ping round-trip time, histogram"
attr unit  s
bin	-INF	0
bin	-0.5	0
bin	-0.46666666666667	0
bin	-0.43333333333333	0
bin	-0.4	0
bin	-0.36666666666667	0
bin	-0.33333333333333	0
bin	-0.3	0
bin	-0.26666666666667	0
bin	-0.23333333333333	0
bin	-0.2	0
bin	-0.16666666666667	0
bin	-0.13333333333333	0
bin	-0.1	0
bin	-0.066666666666667	0
bin	-0.033333333333333	0
bin	0	0
bin	0.033333333333333	0
bin	0.066666666666667	0
bin	0.1	0
bin	0.13333333333333	0
bin	0.16666666666667	0
bin	0.2	0
bin	0.23333333333333	0
bin	0.26666666666667	0
bin	0.3	0
bin	0.33333333333333	0
bin	0.36666666666667	0
bin	0.4	0
bin	0.43333333333333	0
bin	0.46666666666667	0
bin	0.5	0
scalar Flooding.gw[3].manetrouting 	OLSR_HNA_Messages_(Forwarded) 	0
scalar Flooding.gw[3].manetrouting 	OLSR_TC_Messages_(Forwarded) 	109
scalar Flooding.gw[3].manetrouting 	OLSR_Total_HELLO 	2056
scalar Flooding.gw[3].manetrouting 	OLSR_Total_HNA_(originated) 	758
scalar Flooding.gw[3].manetrouting 	OLSR_Total_TC 	703
scalar Flooding.gw[3].manetrouting 	OLSR_Total_Messages_Sent 	3626
scalar Flooding.host[0].networkLayer.arp 	failedARPResolution:count 	3
attr title  "ARP failed resolutions, count"
scalar Flooding.host[0].networkLayer.arp 	completedARPResolution:count 	291
attr title  "ARP completed resolutions, count"
scalar Flooding.host[0].networkLayer.arp 	initiatedARPResolution:count 	19
attr title  "ARP initiated resolutions, count"
scalar Flooding.host[0].networkLayer.arp 	sentReply:count 	59
attr title  "ARP replies sent, count"
scalar Flooding.host[0].networkLayer.arp 	sentReq:count 	25
attr title  "ARP request sent, count"
scalar Flooding.host[0].lo0.lo 	droppedPkBitError:count 	0
attr interpolationmode  none
attr source  dropPkBitError
attr title  "packets dropped/bit error, count"
scalar Flooding.host[0].lo0.lo 	droppedPkBitError:sum(packetBytes) 	0
attr interpolationmode  none
attr source  dropPkBitError
attr title  "packets dropped/bit error, sum(packetBytes)"
scalar Flooding.host[0].lo0.lo 	rcvdPkFromHL:count 	0
attr interpolationmode  none
attr source  packetReceivedFromUpper
attr title  "packets received from higher layer, count"
scalar Flooding.host[0].lo0.lo 	rcvdPkFromHL:sum(packetBytes) 	0
attr interpolationmode  none
attr source  packetReceivedFromUpper
attr title  "packets received from higher layer, sum(packetBytes)"
scalar Flooding.host[0].lo0.lo 	passedUpPk:count 	0
attr interpolationmode  none
attr source  packetSentToUpper
attr title  "packets passed to higher layer, count"
scalar Flooding.host[0].lo0.lo 	passedUpPk:sum(packetBytes) 	0
attr interpolationmode  none
attr source  packetSentToUpper
attr title  "packets passed to higher layer, sum(packetBytes)"
scalar Flooding.host[0].wlan[0].mgmt 	dataQueueLen:max 	3
attr interpolationmode  sample-hold
attr title  "data queue length, max"
scalar Flooding.host[0].wlan[0].mgmt 	dataQueueLen:timeavg 	3.4938612051188e-05
attr interpolationmode  sample-hold
attr title  "data queue length, timeavg"
scalar Flooding.host[0].wlan[0].mgmt 	dropPkByQueue:count 	0
attr interpolationmode  none
attr source  dropPkByQueue
attr title  "packets dropped by queue, count"
scalar Flooding.host[0].wlan[0].mgmt 	dropPkByQueue:sum(packetBytes) 	0
attr interpolationmode  none
attr source  dropPkByQueue
attr title  "packets dropped by queue, sum(packetBytes)"
scalar Flooding.host[0].wlan[0].mac 	"number of received packets" 	108088
scalar Flooding.host[0].wlan[0].mac 	"number of collisions" 	12102
scalar Flooding.host[0].wlan[0].mac 	"number of internal collisions" 	0
scalar Flooding.host[0].wlan[0].mac 	"number of retry for AC 0" 	2383
scalar Flooding.host[0].wlan[0].mac 	"sent and received bits" 	114807328
scalar Flooding.host[0].wlan[0].mac 	"sent packet within AC 0" 	109058
scalar Flooding.host[0].wlan[0].mac 	"sent in TXOP " 	0
scalar Flooding.host[0].wlan[0].mac 	"sentWithoutRetry AC 0" 	108366
scalar Flooding.host[0].wlan[0].mac 	"numGivenUp AC 0" 	169
scalar Flooding.host[0].wlan[0].mac 	"numDropped AC 0" 	0
scalar Flooding.host[0].wlan[0].mac 	rcvdPkFromHL:count 	114627
attr interpolationmode  none
attr source  packetReceivedFromUpper
attr title  "packets received from higher layer, count"
scalar Flooding.host[0].wlan[0].mac 	rcvdPkFromHL:sum(packetBytes) 	14372210
attr interpolationmode  none
attr source  packetReceivedFromUpper
attr title  "packets received from higher layer, sum(packetBytes)"
scalar Flooding.host[0].wlan[0].mac 	passedUpPk:count 	135843
attr interpolationmode  none
attr source  packetSentToUpper
attr title  "packets passed to higher layer, count"
scalar Flooding.host[0].wlan[0].mac 	passedUpPk:sum(packetBytes) 	16788082
attr interpolationmode  none
attr source  packetSentToUpper
attr title  "packets passed to higher layer, sum(packetBytes)"
scalar Flooding.host[0].wlan[0].mac 	rcvdPkFromLL:count 	1029297
attr interpolationmode  none
attr source  packetReceivedFromLower
attr title  "packets received from lower layer, count"
scalar Flooding.host[0].wlan[0].mac 	rcvdPkFromLL:sum(packetBytes) 	73843570
attr interpolationmode  none
attr source  packetReceivedFromLower
attr title  "packets received from lower layer, sum(packetBytes)"
scalar Flooding.host[0].wlan[0].mac 	sentDownPk:count 	225098
attr interpolationmode  none
attr source  packetSentToLower
attr title  "packets sent to lower layer, count"
scalar Flooding.host[0].wlan[0].mac 	sentDownPk:sum(packetBytes) 	16185644
attr interpolationmode  none
attr source  packetSentToLower
attr title  "packets sent to lower layer, sum(packetBytes)"
scalar Flooding.host[0].wlan[0].radio 	lossRate:min 	0
attr interpolationmode  backward-sample-hold
attr title  "packet loss rate, min"
scalar Flooding.host[0].wlan[0].radio 	lossRate:max 	0.24
attr interpolationmode  backward-sample-hold
attr title  "packet loss rate, max"
scalar Flooding.host[0].wlan[0].radio 	lossRate:timeavg 	0.01162231578829
attr interpolationmode  backward-sample-hold
attr title  "packet loss rate, timeavg"
statistic Flooding.host[0].wlan[0].radio 	channelNo:histogram
field count 1
field mean 0
field stddev -nan
field sum 0
field sqrsum 0
field min 0
field max 0
attr interpolationmode  sample-hold
attr title  "channel no, histogram"
bin	-INF	0
bin	-0.5	0
bin	-0.46666666666667	0
bin	-0.43333333333333	0
bin	-0.4	0
bin	-0.36666666666667	0
bin	-0.33333333333333	0
bin	-0.3	0
bin	-0.26666666666667	0
bin	-0.23333333333333	0
bin	-0.2	0
bin	-0.16666666666667	0
bin	-0.13333333333333	0
bin	-0.1	0
bin	-0.066666666666667	0
bin	-0.033333333333333	0
bin	0	1
bin	0.033333333333333	0
bin	0.066666666666667	0
bin	0.1	0
bin	0.13333333333333	0
bin	0.16666666666667	0
bin	0.2	0
bin	0.23333333333333	0
bin	0.26666666666667	0
bin	0.3	0
bin	0.33333333333333	0
bin	0.36666666666667	0
bin	0.4	0
bin	0.43333333333333	0
bin	0.46666666666667	0
bin	0.5	0
scalar Flooding.host[0].wlan[0].radio 	bitrate:min 	11000000
attr interpolationmode  sample-hold
attr title  "tx bitrate, min"
attr unit  bps
scalar Flooding.host[0].wlan[0].radio 	bitrate:max 	11000000
attr interpolationmode  sample-hold
attr title  "tx bitrate, max"
attr unit  bps
scalar Flooding.host[0].wlan[0].radio 	bitrate:timeavg 	11000000
attr interpolationmode  sample-hold
attr title  "tx bitrate, timeavg"
attr unit  bps
scalar Flooding.host[0].wlan[0].radio 	radioState:count 	2510764
attr interpolationmode  sample-hold
attr title  "radio state (enum), count"
scalar Flooding.host[0].pingApp[0] 	"Pings sent" 	11301
scalar Flooding.host[0].pingApp[0] 	"ping loss rate (%)" 	12.556410937085
scalar Flooding.host[0].pingApp[0] 	"ping out-of-order rate (%)" 	0
scalar Flooding.host[0].pingApp[0] 	numOutOfOrderArrivals:last 	-nan
attr interpolationmode  none
attr title  "ping out-of-order arrivals, last"
scalar Flooding.host[0].pingApp[0] 	pingRxSeq:count 	9882
attr interpolationmode  none
attr title  "ping rx seq, count"
scalar Flooding.host[0].pingApp[0] 	pingTxSeq:count 	11301
attr interpolationmode  none
attr title  "ping tx seq, count"
scalar Flooding.host[0].pingApp[0] 	numLost:last 	1419
attr interpolationmode  none
attr title  "pings lost, last"
statistic Flooding.host[0].pingApp[0] 	rtt:histogram
field count 9882
field mean 0.01248556139749
field stddev 0.015984381372944
field sum 123.38231773
field sqrsum 4.0650974288425
field min 0.000984068
field max 1.005701836
attr interpolationmode  none
attr title  "ping round-trip time, histogram"
attr unit  s
bin	-INF	0
bin	-0.010272485	0
bin	-0.0082994232666667	0
bin	-0.0063263615333333	0
bin	-0.0043532998	0
bin	-0.0023802380666667	0
bin	-0.00040717633333333	914
bin	0.0015658854	81
bin	0.0035389471333333	1614
bin	0.0055120088666667	1002
bin	0.0074850706	1161
bin	0.0094581323333333	919
bin	0.011431194066667	776
bin	0.0134042558	616
bin	0.015377317533333	553
bin	0.017350379266667	411
bin	0.019323441	356
bin	0.021296502733333	303
bin	0.023269564466667	241
bin	0.0252426262	178
bin	0.027215687933333	157
bin	0.029188749666667	129
bin	0.0311618114	93
bin	0.033134873133333	78
bin	0.035107934866667	65
bin	0.0370809966	55
bin	0.039054058333333	36
bin	0.041027120066667	29
bin	0.0430001818	21
bin	0.044973243533333	24
bin	0.046946305266667	19
bin	0.048919367	51
scalar Flooding.host[0].pingTestApp[0] 	numOutOfOrderArrivals:last 	-nan
attr interpolationmode  none
attr title  "ping out-of-order arrivals, last"
scalar Flooding.host[0].pingTestApp[0] 	pingRxSeq:count 	0
attr interpolationmode  none
attr title  "ping rx seq, count"
scalar Flooding.host[0].pingTestApp[0] 	pingTxSeq:count 	0
attr interpolationmode  none
attr title  "ping tx seq, count"
scalar Flooding.host[0].pingTestApp[0] 	numLost:last 	-nan
attr interpolationmode  none
attr title  "pings lost, last"
statistic Flooding.host[0].pingTestApp[0] 	rtt:histogram
field count 0
field mean -nan
field stddev -nan
field sum 0
field sqrsum 0
field min -nan
field max -nan
attr interpolationmode  none
attr title  "ping round-trip time, histogram"
attr unit  s
bin	-INF	0
bin	-0.5	0
bin	-0.46666666666667	0
bin	-0.43333333333333	0
bin	-0.4	0
bin	-0.36666666666667	0
bin	-0.33333333333333	0
bin	-0.3	0
bin	-0.26666666666667	0
bin	-0.23333333333333	0
bin	-0.2	0
bin	-0.16666666666667	0
bin	-0.13333333333333	0
bin	-0.1	0
bin	-0.066666666666667	0
bin	-0.033333333333333	0
bin	0	0
bin	0.033333333333333	0
bin	0.066666666666667	0
bin	0.1	0
bin	0.13333333333333	0
bin	0.16666666666667	0
bin	0.2	0
bin	0.23333333333333	0
bin	0.26666666666667	0
bin	0.3	0
bin	0.33333333333333	0
bin	0.36666666666667	0
bin	0.4	0
bin	0.43333333333333	0
bin	0.46666666666667	0
bin	0.5	0
scalar Flooding.host[0].manetrouting 	OLSR_HNA_Messages_(Forwarded) 	739
scalar Flooding.host[0].manetrouting 	OLSR_TC_Messages_(Forwarded) 	2304
scalar Flooding.host[0].manetrouting 	OLSR_Total_HELLO 	2053
scalar Flooding.host[0].manetrouting 	OLSR_Total_HNA_(originated) 	0
scalar Flooding.host[0].manetrouting 	OLSR_Total_TC 	718
scalar Flooding.host[0].manetrouting 	OLSR_Total_Messages_Sent 	5814
scalar Flooding.host[1].networkLayer.arp 	failedARPResolution:count 	0
attr title  "ARP failed resolutions, count"
scalar Flooding.host[1].networkLayer.arp 	completedARPResolution:count 	160
attr title  "ARP completed resolutions, count"
scalar Flooding.host[1].networkLayer.arp 	initiatedARPResolution:count 	1
attr title  "ARP initiated resolutions, count"
scalar Flooding.host[1].networkLayer.arp 	sentReply:count 	28
attr title  "ARP replies sent, count"
scalar Flooding.host[1].networkLayer.arp 	sentReq:count 	1
attr title  "ARP request sent, count"
scalar Flooding.host[1].lo0.lo 	droppedPkBitError:count 	0
attr interpolationmode  none
attr source  dropPkBitError
attr title  "packets dropped/bit error, count"
scalar Flooding.host[1].lo0.lo 	droppedPkBitError:sum(packetBytes) 	0
attr interpolationmode  none
attr source  dropPkBitError
attr title  "packets dropped/bit error, sum(packetBytes)"
scalar Flooding.host[1].lo0.lo 	rcvdPkFromHL:count 	0
attr interpolationmode  none
attr source  packetReceivedFromUpper
attr title  "packets received from higher layer, count"
scalar Flooding.host[1].lo0.lo 	rcvdPkFromHL:sum(packetBytes) 	0
attr interpolationmode  none
attr source  packetReceivedFromUpper
attr title  "packets received from higher layer, sum(packetBytes)"
scalar Flooding.host[1].lo0.lo 	passedUpPk:count 	0
attr interpolationmode  none
attr source  packetSentToUpper
attr title  "packets passed to higher layer, count"
scalar Flooding.host[1].lo0.lo 	passedUpPk:sum(packetBytes) 	0
attr interpolationmode  none
attr source  packetSentToUpper
attr title  "packets passed to higher layer, sum(packetBytes)"
scalar Flooding.host[1].wlan[0].mgmt 	dataQueueLen:max 	1
attr interpolationmode  sample-hold
attr title  "data queue length, max"
scalar Flooding.host[1].wlan[0].mgmt 	dataQueueLen:timeavg 	1.3190555490984e-08
attr interpolationmode  sample-hold
attr title  "data queue length, timeavg"
scalar Flooding.host[1].wlan[0].mgmt 	dropPkByQueue:count 	0
attr interpolationmode  none
attr source  dropPkByQueue
attr title  "packets dropped by queue, count"
scalar Flooding.host[1].wlan[0].mgmt 	dropPkByQueue:sum(packetBytes) 	0
attr interpolationmode  none
attr source  dropPkByQueue
attr title  "packets dropped by queue, sum(packetBytes)"
scalar Flooding.host[1].wlan[0].mac 	"number of received packets" 	20694
scalar Flooding.host[1].wlan[0].mac 	"number of collisions" 	5592
scalar Flooding.host[1].wlan[0].mac 	"number of internal collisions" 	0
scalar Flooding.host[1].wlan[0].mac 	"number of retry for AC 0" 	4881
scalar Flooding.host[1].wlan[0].mac 	"sent and received bits" 	24219520
scalar Flooding.host[1].wlan[0].mac 	"sent packet within AC 0" 	22007
scalar Flooding.host[1].wlan[0].mac 	"sent in TXOP " 	0
scalar Flooding.host[1].wlan[0].mac 	"sentWithoutRetry AC 0" 	20234
scalar Flooding.host[1].wlan[0].mac 	"numGivenUp AC 0" 	11
scalar Flooding.host[1].wlan[0].mac 	"numDropped AC 0" 	0
scalar Flooding.host[1].wlan[0].mac 	rcvdPkFromHL:count 	24647
attr interpolationmode  none
attr source  packetReceivedFromUpper
attr title  "packets received from higher layer, count"
scalar Flooding.host[1].wlan[0].mac 	rcvdPkFromHL:sum(packetBytes) 	3028826
attr interpolationmode  none
attr source  packetReceivedFromUpper
attr title  "packets received from higher layer, sum(packetBytes)"
scalar Flooding.host[1].wlan[0].mac 	passedUpPk:count 	28461
attr interpolationmode  none
attr source  packetSentToUpper
attr title  "packets passed to higher layer, count"
scalar Flooding.host[1].wlan[0].mac 	passedUpPk:sum(packetBytes) 	3510594
attr interpolationmode  none
attr source  packetSentToUpper
attr title  "packets passed to higher layer, sum(packetBytes)"
scalar Flooding.host[1].wlan[0].mac 	rcvdPkFromLL:count 	427872
attr interpolationmode  none
attr source  packetReceivedFromLower
attr title  "packets received from lower layer, count"
scalar Flooding.host[1].wlan[0].mac 	rcvdPkFromLL:sum(packetBytes) 	29972664
attr interpolationmode  none
attr source  packetReceivedFromLower
attr title  "packets received from lower layer, sum(packetBytes)"
scalar Flooding.host[1].wlan[0].mac 	sentDownPk:count 	50222
attr interpolationmode  none
attr source  packetSentToLower
attr title  "packets sent to lower layer, count"
scalar Flooding.host[1].wlan[0].mac 	sentDownPk:sum(packetBytes) 	3933212
attr interpolationmode  none
attr source  packetSentToLower
attr title  "packets sent to lower layer, sum(packetBytes)"
scalar Flooding.host[1].wlan[0].radio 	lossRate:min 	0
attr interpolationmode  backward-sample-hold
attr title  "packet loss rate, min"
scalar Flooding.host[1].wlan[0].radio 	lossRate:max 	0.2
attr interpolationmode  backward-sample-hold
attr title  "packet loss rate, max"
scalar Flooding.host[1].wlan[0].radio 	lossRate:timeavg 	0.012800529645105
attr interpolationmode  backward-sample-hold
attr title  "packet loss rate, timeavg"
statistic Flooding.host[1].wlan[0].radio 	channelNo:histogram
field count 1
field mean 0
field stddev -nan
field sum 0
field sqrsum 0
field min 0
field max 0
attr interpolationmode  sample-hold
attr title  "channel no, histogram"
bin	-INF	0
bin	-0.5	0
bin	-0.46666666666667	0
bin	-0.43333333333333	0
bin	-0.4	0
bin	-0.36666666666667	0
bin	-0.33333333333333	0
bin	-0.3	0
bin	-0.26666666666667	0
bin	-0.23333333333333	0
bin	-0.2	0
bin	-0.16666666666667	0
bin	-0.13333333333333	0
bin	-0.1	0
bin	-0.066666666666667	0
bin	-0.033333333333333	0
bin	0	1
bin	0.033333333333333	0
bin	0.066666666666667	0
bin	0.1	0
bin	0.13333333333333	0
bin	0.16666666666667	0
bin	0.2	0
bin	0.23333333333333	0
bin	0.26666666666667	0
bin	0.3	0
bin	0.33333333333333	0
bin	0.36666666666667	0
bin	0.4	0
bin	0.43333333333333	0
bin	0.46666666666667	0
bin	0.5	0
scalar Flooding.host[1].wlan[0].radio 	bitrate:min 	11000000
attr interpolationmode  sample-hold
attr title  "tx bitrate, min"
attr unit  bps
scalar Flooding.host[1].wlan[0].radio 	bitrate:max 	11000000
attr interpolationmode  sample-hold
attr title  "tx bitrate, max"
attr unit  bps
scalar Flooding.host[1].wlan[0].radio 	bitrate:timeavg 	11000000
attr interpolationmode  sample-hold
attr title  "tx bitrate, timeavg"
attr unit  bps
scalar Flooding.host[1].wlan[0].radio 	radioState:count 	965930
attr interpolationmode  sample-hold
attr title  "radio state (enum), count"
scalar Flooding.host[1].pingApp[0] 	"Pings sent" 	11298
scalar Flooding.host[1].pingApp[0] 	"ping loss rate (%)" 	12.373871481678
scalar Flooding.host[1].pingApp[0] 	"ping out-of-order rate (%)" 	0
scalar Flooding.host[1].pingApp[0] 	numOutOfOrderArrivals:last 	-nan
attr interpolationmode  none
attr title  "ping out-of-order arrivals, last"
scalar Flooding.host[1].pingApp[0] 	pingRxSeq:count 	9900
attr interpolationmode  none
attr title  "ping rx seq, count"
scalar Flooding.host[1].pingApp[0] 	pingTxSeq:count 	11298
attr interpolationmode  none
attr title  "ping tx seq, count"
scalar Flooding.host[1].pingApp[0] 	numLost:last 	1398
attr interpolationmode  none
attr title  "pings lost, last"
statistic Flooding.host[1].pingApp[0] 	rtt:histogram
field count 9900
field mean 0.014221449356465
field stddev 0.0097005029367691
field sum 140.792348629
field sqrsum 2.9337647525878
field min 0.004447048
field max 0.085350079
attr interpolationmode  none
attr title  "ping round-trip time, histogram"
attr unit  s
bin	-INF	0
bin	-0.00798337	0
bin	-0.0063229116	0
bin	-0.0046624532	0
bin	-0.0030019948	0
bin	-0.0013415364	0
bin	0.000318922	0
bin	0.0019793804	0
bin	0.0036398388	1284
bin	0.0053002972	1189
bin	0.0069607556	1040
bin	0.008621214	912
bin	0.0102816724	820
bin	0.0119421308	693
bin	0.0136025892	593
bin	0.0152630476	460
bin	0.016923506	447
bin	0.0185839644	358
bin	0.0202444228	325
bin	0.0219048812	271
bin	0.0235653396	241
bin	0.025225798	210
bin	0.0268862564	184
bin	0.0285467148	159
bin	0.0302071732	122
bin	0.0318676316	95
bin	0.03352809	79
bin	0.0351885484	79
bin	0.0368490068	62
bin	0.0385094652	53
bin	0.0401699236	34
bin	0.041830382	190
scalar Flooding.host[1].pingTestApp[0] 	numOutOfOrderArrivals:last 	-nan
attr interpolationmode  none
attr title  "ping out-of-order arrivals, last"
scalar Flooding.host[1].pingTestApp[0] 	pingRxSeq:count 	0
attr interpolationmode  none
attr title  "ping rx seq, count"
scalar Flooding.host[1].pingTestApp[0] 	pingTxSeq:count 	0
attr interpolationmode  none
attr title  "ping tx seq, count"
scalar Flooding.host[1].pingTestApp[0] 	numLost:last 	-nan
attr interpolationmode  none
attr title  "pings lost, last"
statistic Flooding.host[1].pingTestApp[0] 	rtt:histogram
field count 0
field mean -nan
field stddev -nan
field sum 0
field sqrsum 0
field min -nan
field max -nan
attr interpolationmode  none
attr title  "ping round-trip time, histogram"
attr unit  s
bin	-INF	0
bin	-0.5	0
bin	-0.46666666666667	0
bin	-0.43333333333333	0
bin	-0.4	0
bin	-0.36666666666667	0
bin	-0.33333333333333	0
bin	-0.3	0
bin	-0.26666666666667	0
bin	-0.23333333333333	0
bin	-0.2	0
bin	-0.16666666666667	0
bin	-0.13333333333333	0
bin	-0.1	0
bin	-0.066666666666667	0
bin	-0.033333333333333	0
bin	0	0
bin	0.033333333333333	0
bin	0.066666666666667	0
bin	0.1	0
bin	0.13333333333333	0
bin	0.16666666666667	0
bin	0.2	0
bin	0.23333333333333	0
bin	0.26666666666667	0
bin	0.3	0
bin	0.33333333333333	0
bin	0.36666666666667	0
bin	0.4	0
bin	0.43333333333333	0
bin	0.46666666666667	0
bin	0.5	0
scalar Flooding.host[1].manetrouting 	OLSR_HNA_Messages_(Forwarded) 	736
scalar Flooding.host[1].manetrouting 	OLSR_TC_Messages_(Forwarded) 	2842
scalar Flooding.host[1].manetrouting 	OLSR_Total_HELLO 	2061
scalar Flooding.host[1].manetrouting 	OLSR_Total_HNA_(originated) 	0
scalar Flooding.host[1].manetrouting 	OLSR_Total_TC 	0
scalar Flooding.host[1].manetrouting 	OLSR_Total_Messages_Sent 	5639
scalar Flooding.host[2].networkLayer.arp 	failedARPResolution:count 	0
attr title  "ARP failed resolutions, count"
scalar Flooding.host[2].networkLayer.arp 	completedARPResolution:count 	174
attr title  "ARP completed resolutions, count"
scalar Flooding.host[2].networkLayer.arp 	initiatedARPResolution:count 	2
attr title  "ARP initiated resolutions, count"
scalar Flooding.host[2].networkLayer.arp 	sentReply:count 	29
attr title  "ARP replies sent, count"
scalar Flooding.host[2].networkLayer.arp 	sentReq:count 	2
attr title  "ARP request sent, count"
scalar Flooding.host[2].lo0.lo 	droppedPkBitError:count 	0
attr interpolationmode  none
attr source  dropPkBitError
attr title  "packets dropped/bit error, count"
scalar Flooding.host[2].lo0.lo 	droppedPkBitError:sum(packetBytes) 	0
attr interpolationmode  none
attr source  dropPkBitError
attr title  "packets dropped/bit error, sum(packetBytes)"
scalar Flooding.host[2].lo0.lo 	rcvdPkFromHL:count 	0
attr interpolationmode  none
attr source  packetReceivedFromUpper
attr title  "packets received from higher layer, count"
scalar Flooding.host[2].lo0.lo 	rcvdPkFromHL:sum(packetBytes) 	0
attr interpolationmode  none
attr source  packetReceivedFromUpper
attr title  "packets received from higher layer, sum(packetBytes)"
scalar Flooding.host[2].lo0.lo 	passedUpPk:count 	0
attr interpolationmode  none
attr source  packetSentToUpper
attr title  "packets passed to higher layer, count"
scalar Flooding.host[2].lo0.lo 	passedUpPk:sum(packetBytes) 	0
attr interpolationmode  none
attr source  packetSentToUpper
attr title  "packets passed to higher layer, sum(packetBytes)"
scalar Flooding.host[2].wlan[0].mgmt 	dataQueueLen:max 	0
attr interpolationmode  sample-hold
attr title  "data queue length, max"
scalar Flooding.host[2].wlan[0].mgmt 	dataQueueLen:timeavg 	0
attr interpolationmode  sample-hold
attr title  "data queue length, timeavg"
scalar Flooding.host[2].wlan[0].mgmt 	dropPkByQueue:count 	0
attr interpolationmode  none
attr source  dropPkByQueue
attr title  "packets dropped by queue, count"
scalar Flooding.host[2].wlan[0].mgmt 	dropPkByQueue:sum(packetBytes) 	0
attr interpolationmode  none
attr source  dropPkByQueue
attr title  "packets dropped by queue, sum(packetBytes)"
scalar Flooding.host[2].wlan[0].mac 	"number of received packets" 	20746
scalar Flooding.host[2].wlan[0].mac 	"number of collisions" 	4266
scalar Flooding.host[2].wlan[0].mac 	"number of internal collisions" 	0
scalar Flooding.host[2].wlan[0].mac 	"number of retry for AC 0" 	2950
scalar Flooding.host[2].wlan[0].mac 	"sent and received bits" 	24421904
scalar Flooding.host[2].wlan[0].mac 	"sent packet within AC 0" 	22029
scalar Flooding.host[2].wlan[0].mac 	"sent in TXOP " 	0
scalar Flooding.host[2].wlan[0].mac 	"sentWithoutRetry AC 0" 	20782
scalar Flooding.host[2].wlan[0].mac 	"numGivenUp AC 0" 	20
scalar Flooding.host[2].wlan[0].mac 	"numDropped AC 0" 	0
scalar Flooding.host[2].wlan[0].mac 	rcvdPkFromHL:count 	24667
attr interpolationmode  none
attr source  packetReceivedFromUpper
attr title  "packets received from higher layer, count"
scalar Flooding.host[2].wlan[0].mac 	rcvdPkFromHL:sum(packetBytes) 	3055258
attr interpolationmode  none
attr source  packetReceivedFromUpper
attr title  "packets received from higher layer, sum(packetBytes)"
scalar Flooding.host[2].wlan[0].mac 	passedUpPk:count 	35969
attr interpolationmode  none
attr source  packetSentToUpper
attr title  "packets passed to higher layer, count"
scalar Flooding.host[2].wlan[0].mac 	passedUpPk:sum(packetBytes) 	4365386
attr interpolationmode  none
attr source  packetSentToUpper
attr title  "packets passed to higher layer, sum(packetBytes)"
scalar Flooding.host[2].wlan[0].mac 	rcvdPkFromLL:count 	689863
attr interpolationmode  none
attr source  packetReceivedFromLower
attr title  "packets received from lower layer, count"
scalar Flooding.host[2].wlan[0].mac 	rcvdPkFromLL:sum(packetBytes) 	48957442
attr interpolationmode  none
attr source  packetReceivedFromLower
attr title  "packets received from lower layer, sum(packetBytes)"
scalar Flooding.host[2].wlan[0].mac 	sentDownPk:count 	48363
attr interpolationmode  none
attr source  packetSentToLower
attr title  "packets sent to lower layer, count"
scalar Flooding.host[2].wlan[0].mac 	sentDownPk:sum(packetBytes) 	3717234
attr interpolationmode  none
attr source  packetSentToLower
attr title  "packets sent to lower layer, sum(packetBytes)"
scalar Flooding.host[2].wlan[0].radio 	lossRate:min 	0
attr interpolationmode  backward-sample-hold
attr title  "packet loss rate, min"
scalar Flooding.host[2].wlan[0].radio 	lossRate:max 	0.16
attr interpolationmode  backward-sample-hold
attr title  "packet loss rate, max"
scalar Flooding.host[2].wlan[0].radio 	lossRate:timeavg 	0.0058762195238596
attr interpolationmode  backward-sample-hold
attr title  "packet loss rate, timeavg"
statistic Flooding.host[2].wlan[0].radio 	channelNo:histogram
field count 1
field mean 0
field stddev -nan
field sum 0
field sqrsum 0
field min 0
field max 0
attr interpolationmode  sample-hold
attr title  "channel no, histogram"
bin	-INF	0
bin	-0.5	0
bin	-0.46666666666667	0
bin	-0.43333333333333	0
bin	-0.4	0
bin	-0.36666666666667	0
bin	-0.33333333333333	0
bin	-0.3	0
bin	-0.26666666666667	0
bin	-0.23333333333333	0
bin	-0.2	0
bin	-0.16666666666667	0
bin	-0.13333333333333	0
bin	-0.1	0
bin	-0.066666666666667	0
bin	-0.033333333333333	0
bin	0	1
bin	0.033333333333333	0
bin	0.066666666666667	0
bin	0.1	0
bin	0.13333333333333	0
bin	0.16666666666667	0
bin	0.2	0
bin	0.23333333333333	0
bin	0.26666666666667	0
bin	0.3	0
bin	0.33333333333333	0
bin	0.36666666666667	0
bin	0.4	0
bin	0.43333333333333	0
bin	0.46666666666667	0
bin	0.5	0
scalar Flooding.host[2].wlan[0].radio 	bitrate:min 	11000000
attr interpolationmode  sample-hold
attr title  "tx bitrate, min"
attr unit  bps
scalar Flooding.host[2].wlan[0].radio 	bitrate:max 	11000000
attr interpolationmode  sample-hold
attr title  "tx bitrate, max"
attr unit  bps
scalar Flooding.host[2].wlan[0].radio 	bitrate:timeavg 	11000000
attr interpolationmode  sample-hold
attr title  "tx bitrate, timeavg"
attr unit  bps
scalar Flooding.host[2].wlan[0].radio 	radioState:count 	1479175
attr interpolationmode  sample-hold
attr title  "radio state (enum), count"
scalar Flooding.host[2].pingApp[0] 	"Pings sent" 	11302
scalar Flooding.host[2].pingApp[0] 	"ping loss rate (%)" 	11.502388957707
scalar Flooding.host[2].pingApp[0] 	"ping out-of-order rate (%)" 	0
scalar Flooding.host[2].pingApp[0] 	numOutOfOrderArrivals:last 	-nan
attr interpolationmode  none
attr title  "ping out-of-order arrivals, last"
scalar Flooding.host[2].pingApp[0] 	pingRxSeq:count 	10002
attr interpolationmode  none
attr title  "ping rx seq, count"
[...]
scalar Flooding.host[33].manetrouting 	OLSR_HNA_Messages_(Forwarded) 	758
scalar Flooding.host[33].manetrouting 	OLSR_TC_Messages_(Forwarded) 	774
scalar Flooding.host[33].manetrouting 	OLSR_Total_HELLO 	2054
scalar Flooding.host[33].manetrouting 	OLSR_Total_HNA_(originated) 	0
scalar Flooding.host[33].manetrouting 	OLSR_Total_TC 	37
scalar Flooding.host[33].manetrouting 	OLSR_Total_Messages_Sent 	3623
scalar Flooding.host[34].networkLayer.arp 	failedARPResolution:count 	0
attr title  "ARP failed resolutions, count"
scalar Flooding.host[34].networkLayer.arp 	completedARPResolution:count 	169
attr title  "ARP completed resolutions, count"
scalar Flooding.host[34].networkLayer.arp 	initiatedARPResolution:count 	1
attr title  "ARP initiated resolutions, count"
scalar Flooding.host[34].networkLayer.arp 	sentReply:count 	28
attr title  "ARP replies sent, count"
scalar Flooding.host[34].networkLayer.arp 	sentReq:count 	1
attr title  "ARP request sent, count"
scalar Flooding.host[34].lo0.lo 	droppedPkBitError:count 	0
attr interpolationmode  none
attr source  dropPkBitError
attr title  "packets dropped/bit error, count"
scalar Flooding.host[34].lo0.lo 	droppedPkBitError:sum(packetBytes) 	0
attr interpolationmode  none
attr source  dropPkBitError
attr title  "packets dropped/bit error, sum(packetBytes)"
scalar Flooding.host[34].lo0.lo 	rcvdPkFromHL:count 	0
attr interpolationmode  none
attr source  packetReceivedFromUpper
attr title  "packets received from higher layer, count"
scalar Flooding.host[34].lo0.lo 	rcvdPkFromHL:sum(packetBytes) 	0
attr interpolationmode  none
attr source  packetReceivedFromUpper
attr title  "packets received from higher layer, sum(packetBytes)"
scalar Flooding.host[34].lo0.lo 	passedUpPk:count 	0
attr interpolationmode  none
attr source  packetSentToUpper
attr title  "packets passed to higher layer, count"
scalar Flooding.host[34].lo0.lo 	passedUpPk:sum(packetBytes) 	0
attr interpolationmode  none
attr source  packetSentToUpper
attr title  "packets passed to higher layer, sum(packetBytes)"
scalar Flooding.host[34].wlan[0].mgmt 	dataQueueLen:max 	0
attr interpolationmode  sample-hold
attr title  "data queue length, max"
scalar Flooding.host[34].wlan[0].mgmt 	dataQueueLen:timeavg 	0
attr interpolationmode  sample-hold
attr title  "data queue length, timeavg"
scalar Flooding.host[34].wlan[0].mgmt 	dropPkByQueue:count 	0
attr interpolationmode  none
attr source  dropPkByQueue
attr title  "packets dropped by queue, count"
scalar Flooding.host[34].wlan[0].mgmt 	dropPkByQueue:sum(packetBytes) 	0
attr interpolationmode  none
attr source  dropPkByQueue
attr title  "packets dropped by queue, sum(packetBytes)"
scalar Flooding.host[34].wlan[0].mac 	"number of received packets" 	9783
scalar Flooding.host[34].wlan[0].mac 	"number of collisions" 	938
scalar Flooding.host[34].wlan[0].mac 	"number of internal collisions" 	0
scalar Flooding.host[34].wlan[0].mac 	"number of retry for AC 0" 	536
scalar Flooding.host[34].wlan[0].mac 	"sent and received bits" 	13644240
scalar Flooding.host[34].wlan[0].mac 	"sent packet within AC 0" 	11330
scalar Flooding.host[34].wlan[0].mac 	"sent in TXOP " 	0
scalar Flooding.host[34].wlan[0].mac 	"sentWithoutRetry AC 0" 	11124
scalar Flooding.host[34].wlan[0].mac 	"numGivenUp AC 0" 	1
scalar Flooding.host[34].wlan[0].mac 	"numDropped AC 0" 	0
scalar Flooding.host[34].wlan[0].mac 	rcvdPkFromHL:count 	13922
attr interpolationmode  none
attr source  packetReceivedFromUpper
attr title  "packets received from higher layer, count"
scalar Flooding.host[34].wlan[0].mac 	rcvdPkFromHL:sum(packetBytes) 	1705656
attr interpolationmode  none
attr source  packetReceivedFromUpper
attr title  "packets received from higher layer, sum(packetBytes)"
scalar Flooding.host[34].wlan[0].mac 	passedUpPk:count 	21616
attr interpolationmode  none
attr source  packetSentToUpper
attr title  "packets passed to higher layer, count"
scalar Flooding.host[34].wlan[0].mac 	passedUpPk:sum(packetBytes) 	2539280
attr interpolationmode  none
attr source  packetSentToUpper
attr title  "packets passed to higher layer, sum(packetBytes)"
scalar Flooding.host[34].wlan[0].mac 	rcvdPkFromLL:count 	357148
attr interpolationmode  none
attr source  packetReceivedFromLower
attr title  "packets received from lower layer, count"
scalar Flooding.host[34].wlan[0].mac 	rcvdPkFromLL:sum(packetBytes) 	25274536
attr interpolationmode  none
attr source  packetReceivedFromLower
attr title  "packets received from lower layer, sum(packetBytes)"
scalar Flooding.host[34].wlan[0].mac 	sentDownPk:count 	24241
attr interpolationmode  none
attr source  packetSentToLower
attr title  "packets sent to lower layer, count"
scalar Flooding.host[34].wlan[0].mac 	sentDownPk:sum(packetBytes) 	1909986
attr interpolationmode  none
attr source  packetSentToLower
attr title  "packets sent to lower layer, sum(packetBytes)"
scalar Flooding.host[34].wlan[0].radio 	lossRate:min 	0
attr interpolationmode  backward-sample-hold
attr title  "packet loss rate, min"
scalar Flooding.host[34].wlan[0].radio 	lossRate:max 	0.14
attr interpolationmode  backward-sample-hold
attr title  "packet loss rate, max"
scalar Flooding.host[34].wlan[0].radio 	lossRate:timeavg 	0.0025093917117688
attr interpolationmode  backward-sample-hold
attr title  "packet loss rate, timeavg"
statistic Flooding.host[34].wlan[0].radio 	channelNo:histogram
field count 1
field mean 0
field stddev -nan
field sum 0
field sqrsum 0
field min 0
field max 0
attr interpolationmode  sample-hold
attr title  "channel no, histogram"
bin	-INF	0
bin	-0.5	0
bin	-0.46666666666667	0
bin	-0.43333333333333	0
bin	-0.4	0
bin	-0.36666666666667	0
bin	-0.33333333333333	0
bin	-0.3	0
bin	-0.26666666666667	0
bin	-0.23333333333333	0
bin	-0.2	0
bin	-0.16666666666667	0
bin	-0.13333333333333	0
bin	-0.1	0
bin	-0.066666666666667	0
bin	-0.033333333333333	0
bin	0	1
bin	0.033333333333333	0
bin	0.066666666666667	0
bin	0.1	0
bin	0.13333333333333	0
bin	0.16666666666667	0
bin	0.2	0
bin	0.23333333333333	0
bin	0.26666666666667	0
bin	0.3	0
bin	0.33333333333333	0
bin	0.36666666666667	0
bin	0.4	0
bin	0.43333333333333	0
bin	0.46666666666667	0
bin	0.5	0
scalar Flooding.host[34].wlan[0].radio 	bitrate:min 	11000000
attr interpolationmode  sample-hold
attr title  "tx bitrate, min"
attr unit  bps
scalar Flooding.host[34].wlan[0].radio 	bitrate:max 	11000000
attr interpolationmode  sample-hold
attr title  "tx bitrate, max"
attr unit  bps
scalar Flooding.host[34].wlan[0].radio 	bitrate:timeavg 	11000000
attr interpolationmode  sample-hold
attr title  "tx bitrate, timeavg"
attr unit  bps
scalar Flooding.host[34].wlan[0].radio 	radioState:count 	762797
attr interpolationmode  sample-hold
attr title  "radio state (enum), count"
scalar Flooding.host[34].pingApp[0] 	"Pings sent" 	11303
scalar Flooding.host[34].pingApp[0] 	"ping loss rate (%)" 	13.456604441299
scalar Flooding.host[34].pingApp[0] 	"ping out-of-order rate (%)" 	0
scalar Flooding.host[34].pingApp[0] 	numOutOfOrderArrivals:last 	-nan
attr interpolationmode  none
attr title  "ping out-of-order arrivals, last"
scalar Flooding.host[34].pingApp[0] 	pingRxSeq:count 	9782
attr interpolationmode  none
attr title  "ping rx seq, count"
scalar Flooding.host[34].pingApp[0] 	pingTxSeq:count 	11303
attr interpolationmode  none
attr title  "ping tx seq, count"
scalar Flooding.host[34].pingApp[0] 	numLost:last 	1521
attr interpolationmode  none
attr title  "pings lost, last"
statistic Flooding.host[34].pingApp[0] 	rtt:histogram
field count 9782
field mean 0.014344772357698
field stddev 0.0092041056902731
field sum 140.320563203
field sqrsum 2.841469443847
field min 0.005471415
field max 0.079726729
attr interpolationmode  none
attr title  "ping round-trip time, histogram"
attr unit  s
bin	-INF	0
bin	-0.0155379635	0
bin	-0.0127340121	0
bin	-0.0099300607	0
bin	-0.0071261093	0
bin	-0.0043221579	0
bin	-0.0015182065	0
bin	0.0012857449	0
bin	0.0040896963	1720
bin	0.0068936477	2181
bin	0.0096975991	1551
bin	0.0125015505	1061
bin	0.0153055019	821
bin	0.0181094533	614
bin	0.0209134047	495
bin	0.0237173561	363
bin	0.0265213075	269
bin	0.0293252589	182
bin	0.0321292103	145
bin	0.0349331617	105
bin	0.0377371131	73
bin	0.0405410645	49
bin	0.0433450159	43
bin	0.0461489673	26
bin	0.0489529187	21
bin	0.0517568701	19
bin	0.0545608215	7
bin	0.0573647729	13
bin	0.0601687243	8
bin	0.0629726757	3
bin	0.0657766271	5
bin	0.0685805785	8
scalar Flooding.host[34].pingTestApp[0] 	numOutOfOrderArrivals:last 	-nan
attr interpolationmode  none
attr title  "ping out-of-order arrivals, last"
scalar Flooding.host[34].pingTestApp[0] 	pingRxSeq:count 	0
attr interpolationmode  none
attr title  "ping rx seq, count"
scalar Flooding.host[34].pingTestApp[0] 	pingTxSeq:count 	0
attr interpolationmode  none
attr title  "ping tx seq, count"
scalar Flooding.host[34].pingTestApp[0] 	numLost:last 	-nan
attr interpolationmode  none
attr title  "pings lost, last"
statistic Flooding.host[34].pingTestApp[0] 	rtt:histogram
field count 0
field mean -nan
field stddev -nan
field sum 0
field sqrsum 0
field min -nan
field max -nan
attr interpolationmode  none
attr title  "ping round-trip time, histogram"
attr unit  s
bin	-INF	0
bin	-0.5	0
bin	-0.46666666666667	0
bin	-0.43333333333333	0
bin	-0.4	0
bin	-0.36666666666667	0
bin	-0.33333333333333	0
bin	-0.3	0
bin	-0.26666666666667	0
bin	-0.23333333333333	0
bin	-0.2	0
bin	-0.16666666666667	0
bin	-0.13333333333333	0
bin	-0.1	0
bin	-0.066666666666667	0
bin	-0.033333333333333	0
bin	0	0
bin	0.033333333333333	0
bin	0.066666666666667	0
bin	0.1	0
bin	0.13333333333333	0
bin	0.16666666666667	0
bin	0.2	0
bin	0.23333333333333	0
bin	0.26666666666667	0
bin	0.3	0
bin	0.33333333333333	0
bin	0.36666666666667	0
bin	0.4	0
bin	0.43333333333333	0
bin	0.46666666666667	0
bin	0.5	0
scalar Flooding.host[34].manetrouting 	OLSR_HNA_Messages_(Forwarded) 	758
scalar Flooding.host[34].manetrouting 	OLSR_TC_Messages_(Forwarded) 	810
scalar Flooding.host[34].manetrouting 	OLSR_Total_HELLO 	2053
scalar Flooding.host[34].manetrouting 	OLSR_Total_HNA_(originated) 	0
scalar Flooding.host[34].manetrouting 	OLSR_Total_TC 	0
scalar Flooding.host[34].manetrouting 	OLSR_Total_Messages_Sent 	3621
scalar Flooding.host[35].networkLayer.arp 	failedARPResolution:count 	0
attr title  "ARP failed resolutions, count"
scalar Flooding.host[35].networkLayer.arp 	completedARPResolution:count 	175
attr title  "ARP completed resolutions, count"
scalar Flooding.host[35].networkLayer.arp 	initiatedARPResolution:count 	2
attr title  "ARP initiated resolutions, count"
scalar Flooding.host[35].networkLayer.arp 	sentReply:count 	30
attr title  "ARP replies sent, count"
scalar Flooding.host[35].networkLayer.arp 	sentReq:count 	2
attr title  "ARP request sent, count"
scalar Flooding.host[35].lo0.lo 	droppedPkBitError:count 	0
attr interpolationmode  none
attr source  dropPkBitError
attr title  "packets dropped/bit error, count"
scalar Flooding.host[35].lo0.lo 	droppedPkBitError:sum(packetBytes) 	0
attr interpolationmode  none
attr source  dropPkBitError
attr title  "packets dropped/bit error, sum(packetBytes)"
scalar Flooding.host[35].lo0.lo 	rcvdPkFromHL:count 	0
attr interpolationmode  none
attr source  packetReceivedFromUpper
attr title  "packets received from higher layer, count"
scalar Flooding.host[35].lo0.lo 	rcvdPkFromHL:sum(packetBytes) 	0
attr interpolationmode  none
attr source  packetReceivedFromUpper
attr title  "packets received from higher layer, sum(packetBytes)"
scalar Flooding.host[35].lo0.lo 	passedUpPk:count 	0
attr interpolationmode  none
attr source  packetSentToUpper
attr title  "packets passed to higher layer, count"
scalar Flooding.host[35].lo0.lo 	passedUpPk:sum(packetBytes) 	0
attr interpolationmode  none
attr source  packetSentToUpper
attr title  "packets passed to higher layer, sum(packetBytes)"
scalar Flooding.host[35].wlan[0].mgmt 	dataQueueLen:max 	0
attr interpolationmode  sample-hold
attr title  "data queue length, max"
scalar Flooding.host[35].wlan[0].mgmt 	dataQueueLen:timeavg 	0
attr interpolationmode  sample-hold
attr title  "data queue length, timeavg"
scalar Flooding.host[35].wlan[0].mgmt 	dropPkByQueue:count 	0
attr interpolationmode  none
attr source  dropPkByQueue
attr title  "packets dropped by queue, count"
scalar Flooding.host[35].wlan[0].mgmt 	dropPkByQueue:sum(packetBytes) 	0
attr interpolationmode  none
attr source  dropPkByQueue
attr title  "packets dropped by queue, sum(packetBytes)"
scalar Flooding.host[35].wlan[0].mac 	"number of received packets" 	20520
scalar Flooding.host[35].wlan[0].mac 	"number of collisions" 	1466
scalar Flooding.host[35].wlan[0].mac 	"number of internal collisions" 	0
scalar Flooding.host[35].wlan[0].mac 	"number of retry for AC 0" 	531
scalar Flooding.host[35].wlan[0].mac 	"sent and received bits" 	24429088
scalar Flooding.host[35].wlan[0].mac 	"sent packet within AC 0" 	21959
scalar Flooding.host[35].wlan[0].mac 	"sent in TXOP " 	0
scalar Flooding.host[35].wlan[0].mac 	"sentWithoutRetry AC 0" 	21732
scalar Flooding.host[35].wlan[0].mac 	"numGivenUp AC 0" 	0
scalar Flooding.host[35].wlan[0].mac 	"numDropped AC 0" 	0
scalar Flooding.host[35].wlan[0].mac 	rcvdPkFromHL:count 	24570
attr interpolationmode  none
attr source  packetReceivedFromUpper
attr title  "packets received from higher layer, count"
scalar Flooding.host[35].wlan[0].mac 	rcvdPkFromHL:sum(packetBytes) 	3053636
attr interpolationmode  none
attr source  packetReceivedFromUpper
attr title  "packets received from higher layer, sum(packetBytes)"
scalar Flooding.host[35].wlan[0].mac 	passedUpPk:count 	34392
attr interpolationmode  none
attr source  packetSentToUpper
attr title  "packets passed to higher layer, count"
scalar Flooding.host[35].wlan[0].mac 	passedUpPk:sum(packetBytes) 	4097464
attr interpolationmode  none
attr source  packetSentToUpper
attr title  "packets passed to higher layer, sum(packetBytes)"
scalar Flooding.host[35].wlan[0].mac 	rcvdPkFromLL:count 	393681
attr interpolationmode  none
attr source  packetReceivedFromLower
attr title  "packets received from lower layer, count"
scalar Flooding.host[35].wlan[0].mac 	rcvdPkFromLL:sum(packetBytes) 	28029366
attr interpolationmode  none
attr source  packetReceivedFromLower
attr title  "packets received from lower layer, sum(packetBytes)"
scalar Flooding.host[35].wlan[0].mac 	sentDownPk:count 	45621
attr interpolationmode  none
attr source  packetSentToLower
attr title  "packets sent to lower layer, count"
scalar Flooding.host[35].wlan[0].mac 	sentDownPk:sum(packetBytes) 	3407822
attr interpolationmode  none
attr source  packetSentToLower
attr title  "packets sent to lower layer, sum(packetBytes)"
scalar Flooding.host[35].wlan[0].radio 	lossRate:min 	0
attr interpolationmode  backward-sample-hold
attr title  "packet loss rate, min"
scalar Flooding.host[35].wlan[0].radio 	lossRate:max 	0.2
attr interpolationmode  backward-sample-hold
attr title  "packet loss rate, max"
scalar Flooding.host[35].wlan[0].radio 	lossRate:timeavg 	0.0035003528760869
attr interpolationmode  backward-sample-hold
attr title  "packet loss rate, timeavg"
statistic Flooding.host[35].wlan[0].radio 	channelNo:histogram
field count 1
field mean 0
field stddev -nan
field sum 0
field sqrsum 0
field min 0
field max 0
attr interpolationmode  sample-hold
attr title  "channel no, histogram"
bin	-INF	0
bin	-0.5	0
bin	-0.46666666666667	0
bin	-0.43333333333333	0
bin	-0.4	0
bin	-0.36666666666667	0
bin	-0.33333333333333	0
bin	-0.3	0
bin	-0.26666666666667	0
bin	-0.23333333333333	0
bin	-0.2	0
bin	-0.16666666666667	0
bin	-0.13333333333333	0
bin	-0.1	0
bin	-0.066666666666667	0
bin	-0.033333333333333	0
bin	0	1
bin	0.033333333333333	0
bin	0.066666666666667	0
bin	0.1	0
bin	0.13333333333333	0
bin	0.16666666666667	0
bin	0.2	0
bin	0.23333333333333	0
bin	0.26666666666667	0
bin	0.3	0
bin	0.33333333333333	0
bin	0.36666666666667	0
bin	0.4	0
bin	0.43333333333333	0
bin	0.46666666666667	0
bin	0.5	0
scalar Flooding.host[35].wlan[0].radio 	bitrate:min 	11000000
attr interpolationmode  sample-hold
attr title  "tx bitrate, min"
attr unit  bps
scalar Flooding.host[35].wlan[0].radio 	bitrate:max 	11000000
attr interpolationmode  sample-hold
attr title  "tx bitrate, max"
attr unit  bps
scalar Flooding.host[35].wlan[0].radio 	bitrate:timeavg 	11000000
attr interpolationmode  sample-hold
attr title  "tx bitrate, timeavg"
attr unit  bps
scalar Flooding.host[35].wlan[0].radio 	radioState:count 	879977
attr interpolationmode  sample-hold
attr title  "radio state (enum), count"
scalar Flooding.host[35].pingApp[0] 	"Pings sent" 	11301
scalar Flooding.host[35].pingApp[0] 	"ping loss rate (%)" 	12.56525971153
scalar Flooding.host[35].pingApp[0] 	"ping out-of-order rate (%)" 	0
scalar Flooding.host[35].pingApp[0] 	numOutOfOrderArrivals:last 	-nan
attr interpolationmode  none
attr title  "ping out-of-order arrivals, last"
scalar Flooding.host[35].pingApp[0] 	pingRxSeq:count 	9881
attr interpolationmode  none
attr title  "ping rx seq, count"
scalar Flooding.host[35].pingApp[0] 	pingTxSeq:count 	11301
attr interpolationmode  none
attr title  "ping tx seq, count"
scalar Flooding.host[35].pingApp[0] 	numLost:last 	1420
attr interpolationmode  none
attr title  "pings lost, last"
statistic Flooding.host[35].pingApp[0] 	rtt:histogram
field count 9881
field mean 0.014324893910333
field stddev 0.017345212026987
field sum 141.544276728
field sqrsum 5.0000677847233
field min 0.005469352
field max 1.009155729
attr interpolationmode  none
attr title  "ping round-trip time, histogram"
attr unit  s
bin	-INF	0
bin	-0.0098422135	0
bin	-0.0077819242333333	0
bin	-0.0057216349666667	0
bin	-0.0036613457	0
bin	-0.0016010564333333	0
bin	0.00045923283333333	0
bin	0.0025195221	0
bin	0.0045798113666667	1947
bin	0.0066401006333333	1459
bin	0.0087003899	1325
bin	0.010760679166667	1093
bin	0.012820968433333	795
bin	0.0148812577	638
bin	0.016941546966667	466
bin	0.019001836233333	408
bin	0.0210621255	342
bin	0.023122414766667	284
bin	0.025182704033333	222
bin	0.0272429933	183
bin	0.029303282566667	140
bin	0.031363571833333	133
bin	0.0334238611	74
bin	0.035484150366667	77
bin	0.037544439633333	52
bin	0.0396047289	57
bin	0.041665018166667	42
bin	0.043725307433333	25
bin	0.0457855967	22
bin	0.047845885966667	26
bin	0.049906175233333	19
bin	0.0519664645	52
scalar Flooding.host[35].pingTestApp[0] 	numOutOfOrderArrivals:last 	-nan
attr interpolationmode  none
attr title  "ping out-of-order arrivals, last"
scalar Flooding.host[35].pingTestApp[0] 	pingRxSeq:count 	0
attr interpolationmode  none
attr title  "ping rx seq, count"
scalar Flooding.host[35].pingTestApp[0] 	pingTxSeq:count 	0
attr interpolationmode  none
attr title  "ping tx seq, count"
scalar Flooding.host[35].pingTestApp[0] 	numLost:last 	-nan
attr interpolationmode  none
attr title  "pings lost, last"
statistic Flooding.host[35].pingTestApp[0] 	rtt:histogram
field count 0
field mean -nan
field stddev -nan
field sum 0
field sqrsum 0
field min -nan
field max -nan
attr interpolationmode  none
attr title  "ping round-trip time, histogram"
attr unit  s
bin	-INF	0
bin	-0.5	0
bin	-0.46666666666667	0
bin	-0.43333333333333	0
bin	-0.4	0
bin	-0.36666666666667	0
bin	-0.33333333333333	0
bin	-0.3	0
bin	-0.26666666666667	0
bin	-0.23333333333333	0
bin	-0.2	0
bin	-0.16666666666667	0
bin	-0.13333333333333	0
bin	-0.1	0
bin	-0.066666666666667	0
bin	-0.033333333333333	0
bin	0	0
bin	0.033333333333333	0
bin	0.066666666666667	0
bin	0.1	0
bin	0.13333333333333	0
bin	0.16666666666667	0
bin	0.2	0
bin	0.23333333333333	0
bin	0.26666666666667	0
bin	0.3	0
bin	0.33333333333333	0
bin	0.36666666666667	0
bin	0.4	0
bin	0.43333333333333	0
bin	0.46666666666667	0
bin	0.5	0
scalar Flooding.host[35].manetrouting 	OLSR_HNA_Messages_(Forwarded) 	758
scalar Flooding.host[35].manetrouting 	OLSR_TC_Messages_(Forwarded) 	807
scalar Flooding.host[35].manetrouting 	OLSR_Total_HELLO 	2059
scalar Flooding.host[35].manetrouting 	OLSR_Total_HNA_(originated) 	0
scalar Flooding.host[35].manetrouting 	OLSR_Total_TC 	4
scalar Flooding.host[35].manetrouting 	OLSR_Total_Messages_Sent 	3628
